/*---------------------------------------------------------------------------*\
| =========                 |                                                 |
| \\      /  F ield         | OpenFOAM: The Open Source CFD Toolbox           |
|  \\    /   O peration     | Version:  v1812                                 |
|   \\  /    A nd           | Web:      www.OpenFOAM.com                      |
|    \\/     M anipulation  |                                                 |
\*---------------------------------------------------------------------------*/
Build  : c7ad3a5-20201013 OPENFOAM=1812
Arch   : "LSB;label=32;scalar=64"
Exec   : C:\Program Files/SimFlow/engine-1812/bin/setFields -noFunctionObjects
Date   : Aug 27 2022
Time   : 00:08:00
Host   : MZA-PC
PID    : 4972
I/O    : uncollated
Case   : C:/Users/Myo/simflow/boat/boat
nProcs : 1
fileModificationChecking : Monitoring run-time modified files using timeStampMaster (fileModificationSkew 10)
allowSystemOperations : Allowing user-supplied system call operations

// * * * * * * * * * * * * * * * * * * * * * * * * * * * * * * * * * * * * * //
Create time

Overriding OptimisationSwitches according to controlDict
    fileModificationSkew 0;

    maxMasterFileBufferSize 1e+009;

    maxThreadFileBufferSize 1e+009;

Create mesh for time = 0

Reading setFieldsDict

Setting field default values

Setting field region values
    Adding cells with centre within boxes 1((-11 -6 -3) (11 6 -0.1500001))
    Setting internal values of volScalarField alpha.phase1
    Adding faces with centre within boxes 1((-11 -6 -3) (11 6 -0.1500001))
    Setting patchField values of volScalarField alpha.phase1
--> FOAM Warning : 
    From function bool setFaceFieldType(const Foam::word&, const Foam::fvMesh&, const labelList&, Foam::Istream&) [with Type = double; Foam::labelList = Foam::List<int>]
    in file setFields.C at line 275
    Ignoring internal face 0. Suppressing further warnings.
    On patch inlet set 364 values
    On patch outlet set 364 values
    On patch symmetry set 3945 values
    On patch bottom set 770 values
    On patch Boat set 2789 values

End

/*---------------------------------------------------------------------------*\
| =========                 |                                                 |
| \\      /  F ield         | OpenFOAM: The Open Source CFD Toolbox           |
|  \\    /   O peration     | Version:  v1812                                 |
|   \\  /    A nd           | Web:      www.OpenFOAM.com                      |
|    \\/     M anipulation  |                                                 |
\*---------------------------------------------------------------------------*/
Build  : c7ad3a5-20201013 OPENFOAM=1812
Arch   : "LSB;label=32;scalar=64"
Exec   : C:\Program Files/SimFlow/engine-1812/bin/decomposePar -noFunctionObjects -force -latestTime
Date   : Aug 27 2022
Time   : 00:08:01
Host   : MZA-PC
PID    : 15416
I/O    : uncollated
Case   : C:/Users/Myo/simflow/boat/boat
nProcs : 1
fileModificationChecking : Monitoring run-time modified files using timeStampMaster (fileModificationSkew 10)
allowSystemOperations : Allowing user-supplied system call operations

// * * * * * * * * * * * * * * * * * * * * * * * * * * * * * * * * * * * * * //
Create time

Overriding OptimisationSwitches according to controlDict
    fileModificationSkew 0;

    maxMasterFileBufferSize 1e+009;

    maxThreadFileBufferSize 1e+009;



Decomposing mesh region0

Create mesh

Calculating distribution of cells
Selecting decompositionMethod scotch [2]

Finished decomposition in 0.42 s

Calculating original mesh data

Distributing cells to processors

Distributing faces to processors

Distributing points to processors

Constructing processor meshes
Reading hexRef8 data : cellLevel
Reading hexRef8 data : pointLevel
Overriding OptimisationSwitches according to controlDict
    fileModificationSkew 0;

    maxMasterFileBufferSize 1e+009;

    maxThreadFileBufferSize 1e+009;


Processor 0
    Number of cells = 85294
    Number of faces shared with processor 1 = 1619
    Number of processor patches = 1
    Number of processor faces = 1619
    Number of boundary faces = 11920
Overriding OptimisationSwitches according to controlDict
    fileModificationSkew 0;

    maxMasterFileBufferSize 1e+009;

    maxThreadFileBufferSize 1e+009;


Processor 1
    Number of cells = 84307
    Number of faces shared with processor 0 = 1619
    Number of processor patches = 1
    Number of processor faces = 1619
    Number of boundary faces = 5456

Number of processor faces = 1619
Max number of cells = 85294 (0.5819541% above average 84800.5)
Max number of processor patches = 1 (0% above average 1)
Max number of faces between processors = 1619 (0% above average 1619)

Time = 0

Processor 0: field transfer
Overriding OptimisationSwitches according to controlDict
    fileModificationSkew 0;

    maxMasterFileBufferSize 1e+009;

    maxThreadFileBufferSize 1e+009;

Processor 1: field transfer
Overriding OptimisationSwitches according to controlDict
    fileModificationSkew 0;

    maxMasterFileBufferSize 1e+009;

    maxThreadFileBufferSize 1e+009;


End

/*---------------------------------------------------------------------------*\
| =========                 |                                                 |
| \\      /  F ield         | OpenFOAM: The Open Source CFD Toolbox           |
|  \\    /   O peration     | Version:  v1812                                 |
|   \\  /    A nd           | Web:      www.OpenFOAM.com                      |
|    \\/     M anipulation  |                                                 |
\*---------------------------------------------------------------------------*/
Build  : c7ad3a5-20201013 OPENFOAM=1812
Arch   : "LSB;label=32;scalar=64"
Exec   : interFoam -parallel
Date   : Aug 27 2022
Time   : 00:08:02
Host   : MZA-PC
PID    : 24836
I/O    : uncollated
Case   : C:/Users/Myo/simflow/boat/boat
nProcs : 2
Hosts  :
(
    (MZA-PC 2)
)
Pstream initialized with:
    floatTransfer      : 0
    nProcsSimpleSum    : 0
    commsType          : nonBlocking
    polling iterations : 0
fileModificationChecking : Monitoring run-time modified files using timeStampMaster (fileModificationSkew 10)
allowSystemOperations : Allowing user-supplied system call operations

// * * * * * * * * * * * * * * * * * * * * * * * * * * * * * * * * * * * * * //
Create time

Overriding OptimisationSwitches according to controlDict
    fileModificationSkew 0;

    maxMasterFileBufferSize 1e+009;

    maxThreadFileBufferSize 1e+009;

Create mesh for time = 0

Selecting dynamicFvMesh dynamicMotionSolverFvMesh
Selecting motion solver: sixDoFRigidBodyMotion
Selecting sixDoFSolver Newmark
Translational constraint tensor (0 0 0 0 0 0 0 0 1)
Rotational constraint tensor (0 0 0 0 1 0 0 0 0)

PIMPLE: max iterations = 3
    field p_rgh	: relTol 0, tolerance 0.0001
    field U	: relTol 0, tolerance 0.0001
    field pcorr	: relTol 0, tolerance 0.0001
    field k	: relTol 0, tolerance 0.0001
    field omega	: relTol 0, tolerance 0.0001

Reading field p_rgh

Reading field U

Reading/calculating face flux field phi

Reading transportProperties

Selecting incompressible transport model Newtonian
Selecting incompressible transport model Newtonian
Selecting turbulence model type RAS
Selecting RAS turbulence model kOmegaSST
Selecting patchDistMethod meshWave
kOmegaSSTCoeffs
{
    alphaK1         0.85;
    alphaOmega2     0.856;
    gamma2          0.4403;
    alphaK2         1;
    alphaOmega1     0.5;
    gamma1          0.5532;
    F3              false;
    c1              10;
    b1              1;
    a1              0.31;
    beta1           0.075;
    beta2           0.0828;
    betaStar        0.09;
    decayControl    false;
    kInf            0;
    omegaInf        0;
}


Reading g

Reading hRef
Calculating field g.h

Creating MRF zone list from MRFProperties
Creating finite volume options from "system/fvOptions"

No finite volume options present
GAMG:  Solving for pcorr, Initial residual = 1, Final residual = 7.333786e-005, No Iterations 18
GAMG:  Solving for pcorr, Initial residual = 0.5035216, Final residual = 4.94695e-005, No Iterations 9
GAMG:  Solving for pcorr, Initial residual = 0.02458308, Final residual = 2.040987e-006, No Iterations 12
time step continuity errors : sum local = 3.764621e-012, global = -1.602323e-013, cumulative = -1.602323e-013
Constructing face velocity Uf

Courant Number mean: 0.0009051051 max: 0.1300504
Reading surface description:
    slice_1

forces forceMonitorOnBoatInDefault:
    Not including porosity effects


Starting time loop

Courant Number mean: 0.0009051051 max: 0.1300504
Interface Courant Number mean: 0 max: 0
deltaT = 0.0001199041
Time = 0.000119904

PIMPLE: iteration 1
forces forces:
    Not including porosity effects

Restraint linearRestraint:  force (-0 -0 -0)
Restraint angularRestraint:  moment (-0 -0 -0)
6-DoF rigid body motion
    Centre of rotation: (-1.1 0 -0.1384999)
    Centre of mass: (-1.1 0 -0.1384999)
    Orientation: (1 0 1.705451e-009 0 1 0 -1.705451e-009 0 1)
    Linear velocity: (0 0 0.0009757667)
    Angular velocity: (0 2.844692e-005 0)
MULES: Solving for alpha.phase1
MULES: Solving for alpha.phase1
Phase-1 volume fraction = 0.6158291  Min(alpha.phase1) = -2.320161e-019  Max(alpha.phase1) = 1.000007
MULES: Solving for alpha.phase1
MULES: Solving for alpha.phase1
Phase-1 volume fraction = 0.6158291  Min(alpha.phase1) = -7.384895e-020  Max(alpha.phase1) = 1.000013
GAMG:  Solving for p_rgh, Initial residual = 1, Final residual = 8.028911e-005, No Iterations 6
GAMG:  Solving for p_rgh, Initial residual = 0.003310827, Final residual = 6.451922e-007, No Iterations 7
GAMG:  Solving for p_rgh, Initial residual = 0.0003124343, Final residual = 9.176701e-007, No Iterations 4
time step continuity errors : sum local = 2.916845e-010, global = -1.458199e-011, cumulative = -1.474222e-011
PIMPLE: iteration 2
MULES: Solving for alpha.phase1
MULES: Solving for alpha.phase1
Phase-1 volume fraction = 0.6158291  Min(alpha.phase1) = -4.663013e-007  Max(alpha.phase1) = 1.000008
MULES: Solving for alpha.phase1
MULES: Solving for alpha.phase1
Phase-1 volume fraction = 0.6158291  Min(alpha.phase1) = -4.543183e-007  Max(alpha.phase1) = 1.000015
GAMG:  Solving for p_rgh, Initial residual = 0.0005026409, Final residual = 8.501528e-007, No Iterations 6
GAMG:  Solving for p_rgh, Initial residual = 0.0001058274, Final residual = 8.616893e-007, No Iterations 3
GAMG:  Solving for p_rgh, Initial residual = 1.639198e-005, Final residual = 4.027109e-007, No Iterations 2
time step continuity errors : sum local = 1.299766e-010, global = -8.949541e-013, cumulative = -1.563717e-011
PIMPLE: iteration 3
MULES: Solving for alpha.phase1
MULES: Solving for alpha.phase1
Phase-1 volume fraction = 0.6158291  Min(alpha.phase1) = -2.497844e-011  Max(alpha.phase1) = 1.000003
MULES: Solving for alpha.phase1
MULES: Solving for alpha.phase1
Phase-1 volume fraction = 0.6158291  Min(alpha.phase1) = -2.351948e-011  Max(alpha.phase1) = 1.000005
GAMG:  Solving for p_rgh, Initial residual = 0.0001384954, Final residual = 5.774524e-007, No Iterations 4
GAMG:  Solving for p_rgh, Initial residual = 2.633352e-005, Final residual = 6.423666e-007, No Iterations 2
GAMG:  Solving for p_rgh, Initial residual = 3.868624e-006, Final residual = 5.13946e-007, No Iterations 1
time step continuity errors : sum local = 1.656362e-010, global = -8.677356e-012, cumulative = -2.431453e-011
DILUPBiCGStab:  Solving for omega, Initial residual = 7.355733e-005, Final residual = 4.754648e-009, No Iterations 1
bounding omega, min: -0.1380983 max: 3110.434 average: 20.55343
DILUPBiCGStab:  Solving for k, Initial residual = 1, Final residual = 3.27663e-005, No Iterations 1
PIMPLE: not converged within 3 iterations
ExecutionTime = 2.987 s  ClockTime = 3 s

forces forceMonitorOnBoatInDefault write:
    Sum of forces
        Total    : (80864.43 -59265.81 49063.9)
        Pressure : (80847.63 -59265.91 49063.91)
        Viscous  : (16.80029 0.09165278 -0.01021315)
    Sum of moments
        Total    : (-10007.28 273862.1 151955)
        Pressure : (-10007.29 273866.5 151959.5)
        Viscous  : (0.003739517 -4.404445 -4.552866)


Courant Number mean: 0.001086077 max: 0.1406476
Interface Courant Number mean: 8.109173e-008 max: 0.1123045
deltaT = 0.0001437467
Time = 0.000263651

PIMPLE: iteration 1
forces forces:
    Not including porosity effects

Restraint linearRestraint:  force (-0 -0 -0.029273)
Restraint angularRestraint:  moment (-0 -0.0008534077 -0)
6-DoF rigid body motion
    Centre of rotation: (-1.1 0 -0.1384977)
    Centre of mass: (-1.1 0 -0.1384977)
    Orientation: (1 0 2.395781e-006 0 1 0 -2.395781e-006 0 1)
    Linear velocity: (0 0 0.03082702)
    Angular velocity: (0 0.0332812 0)
MULES: Solving for alpha.phase1
MULES: Solving for alpha.phase1
Phase-1 volume fraction = 0.6158291  Min(alpha.phase1) = -2.189085e-011  Max(alpha.phase1) = 1.000015
MULES: Solving for alpha.phase1
MULES: Solving for alpha.phase1
Phase-1 volume fraction = 0.6158291  Min(alpha.phase1) = -2.036908e-011  Max(alpha.phase1) = 1.00003
GAMG:  Solving for p_rgh, Initial residual = 0.001478896, Final residual = 9.873808e-007, No Iterations 13
GAMG:  Solving for p_rgh, Initial residual = 0.004321038, Final residual = 7.627006e-007, No Iterations 9
GAMG:  Solving for p_rgh, Initial residual = 0.0003661945, Final residual = 5.847687e-007, No Iterations 6
time step continuity errors : sum local = 1.81786e-010, global = 5.536387e-012, cumulative = -1.877814e-011
PIMPLE: iteration 2
MULES: Solving for alpha.phase1
MULES: Solving for alpha.phase1
Phase-1 volume fraction = 0.6158291  Min(alpha.phase1) = -2.192928e-011  Max(alpha.phase1) = 1.000066
MULES: Solving for alpha.phase1
MULES: Solving for alpha.phase1
Phase-1 volume fraction = 0.6158291  Min(alpha.phase1) = -2.045021e-011  Max(alpha.phase1) = 1.000131
GAMG:  Solving for p_rgh, Initial residual = 8.678904e-005, Final residual = 8.629291e-007, No Iterations 4
GAMG:  Solving for p_rgh, Initial residual = 1.489591e-005, Final residual = 6.575891e-007, No Iterations 2
GAMG:  Solving for p_rgh, Initial residual = 2.523913e-006, Final residual = 4.487724e-007, No Iterations 1
time step continuity errors : sum local = 1.419364e-010, global = 1.168235e-011, cumulative = -7.095797e-012
PIMPLE: iteration 3
MULES: Solving for alpha.phase1
MULES: Solving for alpha.phase1
Phase-1 volume fraction = 0.6158291  Min(alpha.phase1) = -2.19055e-011  Max(alpha.phase1) = 1.000009
MULES: Solving for alpha.phase1
MULES: Solving for alpha.phase1
Phase-1 volume fraction = 0.6158291  Min(alpha.phase1) = -2.040576e-011  Max(alpha.phase1) = 1.000013
GAMG:  Solving for p_rgh, Initial residual = 9.653924e-006, Final residual = 8.102805e-007, No Iterations 2
GAMG:  Solving for p_rgh, Initial residual = 3.009099e-006, Final residual = 5.725478e-007, No Iterations 1
GAMG:  Solving for p_rgh, Initial residual = 9.301828e-007, Final residual = 3.25986e-007, No Iterations 1
time step continuity errors : sum local = 1.031128e-010, global = 3.817366e-012, cumulative = -3.27843e-012
DILUPBiCGStab:  Solving for omega, Initial residual = 8.518389e-005, Final residual = 3.557184e-010, No Iterations 1
DILUPBiCGStab:  Solving for k, Initial residual = 0.01635967, Final residual = 3.169247e-007, No Iterations 1
bounding k, min: 1.880394e-016 max: 0.015 average: 0.0100184
PIMPLE: not converged within 3 iterations
ExecutionTime = 5.125 s  ClockTime = 5 s

forces forceMonitorOnBoatInDefault write:
    Sum of forces
        Total    : (1910.493 -1820.372 2836.42)
        Pressure : (1893.852 -1820.544 2836.482)
        Viscous  : (16.64101 0.1718382 -0.06231413)
    Sum of moments
        Total    : (34.80142 5542.514 3736.507)
        Pressure : (34.78896 5547.113 3741.241)
        Viscous  : (0.01246217 -4.599018 -4.733902)


Courant Number mean: 0.001301849 max: 0.1654907
Interface Courant Number mean: 1.357159e-007 max: 0.1320995
deltaT = 0.0001726957
Time = 0.000436346

PIMPLE: iteration 1
forces forces:
    Not including porosity effects

Restraint linearRestraint:  force (-0 -0 -0.9248106)
Restraint angularRestraint:  moment (-0 -0.9984359 -0)
6-DoF rigid body motion
    Centre of rotation: (-1.1 0 -0.1384893)
    Centre of mass: (-1.1 0 -0.1384893)
    Orientation: (1 0 1.162938e-005 0 1 0 -1.162938e-005 0 1)
    Linear velocity: (0 0 0.06647786)
    Angular velocity: (0 0.07365375 0)
MULES: Solving for alpha.phase1
MULES: Solving for alpha.phase1
Phase-1 volume fraction = 0.6158291  Min(alpha.phase1) = -1.874203e-011  Max(alpha.phase1) = 1.000037
MULES: Solving for alpha.phase1
MULES: Solving for alpha.phase1
Phase-1 volume fraction = 0.6158291  Min(alpha.phase1) = -1.72041e-011  Max(alpha.phase1) = 1.000071
GAMG:  Solving for p_rgh, Initial residual = 0.0004997146, Final residual = 7.174172e-007, No Iterations 5
GAMG:  Solving for p_rgh, Initial residual = 4.540133e-005, Final residual = 9.144625e-007, No Iterations 2
GAMG:  Solving for p_rgh, Initial residual = 5.602897e-006, Final residual = 6.860538e-007, No Iterations 1
time step continuity errors : sum local = 3.059363e-010, global = 1.726194e-011, cumulative = 1.398351e-011
PIMPLE: iteration 2
MULES: Solving for alpha.phase1
MULES: Solving for alpha.phase1
Phase-1 volume fraction = 0.6158292  Min(alpha.phase1) = -1.874461e-011  Max(alpha.phase1) = 1.00002
MULES: Solving for alpha.phase1
MULES: Solving for alpha.phase1
Phase-1 volume fraction = 0.6158292  Min(alpha.phase1) = -1.722239e-011  Max(alpha.phase1) = 1.000027
GAMG:  Solving for p_rgh, Initial residual = 2.651276e-005, Final residual = 5.001057e-007, No Iterations 3
GAMG:  Solving for p_rgh, Initial residual = 6.410034e-006, Final residual = 5.897552e-007, No Iterations 1
GAMG:  Solving for p_rgh, Initial residual = 1.111892e-006, Final residual = 2.409336e-007, No Iterations 1
time step continuity errors : sum local = 1.076822e-010, global = 1.350076e-011, cumulative = 2.748427e-011
DILUPBiCGStab:  Solving for omega, Initial residual = 9.511244e-005, Final residual = 6.103866e-010, No Iterations 1
DILUPBiCGStab:  Solving for k, Initial residual = 0.008527983, Final residual = 2.128301e-007, No Iterations 1
bounding k, min: 1.482657e-018 max: 0.015 average: 0.01003101
PIMPLE: converged in 2 iterations
ExecutionTime = 6.422 s  ClockTime = 7 s

forces forceMonitorOnBoatInDefault write:
    Sum of forces
        Total    : (907.4537 -1225.081 2244.283)
        Pressure : (890.957 -1225.293 2244.361)
        Viscous  : (16.49666 0.2118372 -0.07755507)
    Sum of moments
        Total    : (83.90296 3710.945 2317.728)
        Pressure : (83.88441 3715.607 2322.537)
        Viscous  : (0.01855298 -4.662555 -4.809562)


Courant Number mean: 0.00156452 max: 0.194646
Interface Courant Number mean: 1.991395e-007 max: 0.1561818
deltaT = 0.0002073793
Time = 0.000643726

PIMPLE: iteration 1
forces forces:
    Not including porosity effects

Restraint linearRestraint:  force (-0 -0 -1.994336)
Restraint angularRestraint:  moment (-0 -2.209613 -0)
6-DoF rigid body motion
    Centre of rotation: (-1.1 0 -0.1384752)
    Centre of mass: (-1.1 0 -0.1384752)
    Orientation: (1 0 2.699084e-005 0 1 0 -2.699084e-005 0 1)
    Linear velocity: (0 0 0.06883108)
    Angular velocity: (0 0.07449467 0)
MULES: Solving for alpha.phase1
MULES: Solving for alpha.phase1
Phase-1 volume fraction = 0.6158292  Min(alpha.phase1) = -1.555861e-011  Max(alpha.phase1) = 1.000028
MULES: Solving for alpha.phase1
MULES: Solving for alpha.phase1
Phase-1 volume fraction = 0.6158292  Min(alpha.phase1) = -1.404321e-011  Max(alpha.phase1) = 1.000028
GAMG:  Solving for p_rgh, Initial residual = 0.0002260743, Final residual = 6.302592e-007, No Iterations 5
GAMG:  Solving for p_rgh, Initial residual = 1.941531e-005, Final residual = 6.644986e-007, No Iterations 2
GAMG:  Solving for p_rgh, Initial residual = 2.678624e-006, Final residual = 4.521353e-007, No Iterations 1
time step continuity errors : sum local = 2.83668e-010, global = 1.839021e-011, cumulative = 4.587448e-011
PIMPLE: iteration 2
MULES: Solving for alpha.phase1
MULES: Solving for alpha.phase1
Phase-1 volume fraction = 0.6158292  Min(alpha.phase1) = -1.554457e-011  Max(alpha.phase1) = 1.000053
MULES: Solving for alpha.phase1
MULES: Solving for alpha.phase1
Phase-1 volume fraction = 0.6158292  Min(alpha.phase1) = -1.404102e-011  Max(alpha.phase1) = 1.000079
GAMG:  Solving for p_rgh, Initial residual = 1.325199e-005, Final residual = 5.980631e-007, No Iterations 2
GAMG:  Solving for p_rgh, Initial residual = 2.819202e-006, Final residual = 4.933123e-007, No Iterations 1
GAMG:  Solving for p_rgh, Initial residual = 8.063169e-007, Final residual = 2.647687e-007, No Iterations 1
time step continuity errors : sum local = 1.662725e-010, global = 1.135278e-011, cumulative = 5.722725e-011
DILUPBiCGStab:  Solving for omega, Initial residual = 0.0001131005, Final residual = 1.061614e-009, No Iterations 1
bounding omega, min: -0.02613742 max: 3135.722 average: 21.01378
DILUPBiCGStab:  Solving for k, Initial residual = 0.006043641, Final residual = 1.959433e-007, No Iterations 1
PIMPLE: converged in 2 iterations
ExecutionTime = 7.546 s  ClockTime = 8 s

forces forceMonitorOnBoatInDefault write:
    Sum of forces
        Total    : (498.8576 -983.1974 2017.346)
        Pressure : (482.5296 -983.4317 2017.423)
        Viscous  : (16.32806 0.234345 -0.07667379)
    Sum of moments
        Total    : (103.2329 3015.531 1746.475)
        Pressure : (103.2095 3020.196 1751.308)
        Viscous  : (0.02346798 -4.664828 -4.833074)


Courant Number mean: 0.001879524 max: 0.229137
Interface Courant Number mean: 2.734159e-007 max: 0.1847633
deltaT = 0.0002492741
Time = 0.000893

PIMPLE: iteration 1
forces forces:
    Not including porosity effects

Restraint linearRestraint:  force (-0 -0 -2.064932)
Restraint angularRestraint:  moment (-0 -2.23484 -0)
6-DoF rigid body motion
    Centre of rotation: (-1.1 0 -0.1384578)
    Centre of mass: (-1.1 0 -0.1384578)
    Orientation: (1 0 4.562982e-005 0 1 0 -4.562982e-005 0 1)
    Linear velocity: (0 0 0.07080779)
    Angular velocity: (0 0.07505141 0)
MULES: Solving for alpha.phase1
MULES: Solving for alpha.phase1
Phase-1 volume fraction = 0.6158292  Min(alpha.phase1) = -1.242983e-011  Max(alpha.phase1) = 1.000082
MULES: Solving for alpha.phase1
MULES: Solving for alpha.phase1
Phase-1 volume fraction = 0.6158292  Min(alpha.phase1) = -1.098875e-011  Max(alpha.phase1) = 1.000085
GAMG:  Solving for p_rgh, Initial residual = 0.0001635154, Final residual = 5.144119e-007, No Iterations 4
GAMG:  Solving for p_rgh, Initial residual = 1.33908e-005, Final residual = 3.417051e-007, No Iterations 2
GAMG:  Solving for p_rgh, Initial residual = 1.746946e-006, Final residual = 2.193283e-007, No Iterations 1
time step continuity errors : sum local = 1.932596e-010, global = 9.965836e-012, cumulative = 6.719309e-011
PIMPLE: iteration 2
MULES: Solving for alpha.phase1
MULES: Solving for alpha.phase1
Phase-1 volume fraction = 0.6158292  Min(alpha.phase1) = -1.241201e-011  Max(alpha.phase1) = 1.000079
MULES: Solving for alpha.phase1
MULES: Solving for alpha.phase1
Phase-1 volume fraction = 0.6158293  Min(alpha.phase1) = -1.098926e-011  Max(alpha.phase1) = 1.000079
GAMG:  Solving for p_rgh, Initial residual = 8.071548e-006, Final residual = 9.712228e-007, No Iterations 1
GAMG:  Solving for p_rgh, Initial residual = 2.043789e-006, Final residual = 3.464547e-007, No Iterations 1
GAMG:  Solving for p_rgh, Initial residual = 6.242485e-007, Final residual = 1.329906e-007, No Iterations 1
time step continuity errors : sum local = 1.172233e-010, global = 7.984359e-013, cumulative = 6.799152e-011
DILUPBiCGStab:  Solving for omega, Initial residual = 0.0001344603, Final residual = 1.908974e-009, No Iterations 1
DILUPBiCGStab:  Solving for k, Initial residual = 0.004832214, Final residual = 2.058048e-007, No Iterations 1
PIMPLE: converged in 2 iterations
ExecutionTime = 8.648 s  ClockTime = 9 s

forces forceMonitorOnBoatInDefault write:
    Sum of forces
        Total    : (346.3036 -868.8795 1905.367)
        Pressure : (330.1635 -869.1283 1905.434)
        Viscous  : (16.14013 0.2488009 -0.06684485)
    Sum of moments
        Total    : (110.3199 2703.589 1479.036)
        Pressure : (110.2918 2708.225 1483.867)
        Viscous  : (0.02809319 -4.635834 -4.831287)


Courant Number mean: 0.002259361 max: 0.2695477
Interface Courant Number mean: 3.70322e-007 max: 0.2208365
deltaT = 0.0002994329
Time = 0.00119243

PIMPLE: iteration 1
forces forces:
    Not including porosity effects

Restraint linearRestraint:  force (-0 -0 -2.124234)
Restraint angularRestraint:  moment (-0 -2.251542 -0)
6-DoF rigid body motion
    Centre of rotation: (-1.1 0 -0.1384363)
    Centre of mass: (-1.1 0 -0.1384363)
    Orientation: (1 0 6.817089e-005 0 1 0 -6.817089e-005 0 1)
    Linear velocity: (0 0 0.07275925)
    Angular velocity: (0 0.07550693 0)
MULES: Solving for alpha.phase1
MULES: Solving for alpha.phase1
Phase-1 volume fraction = 0.6158293  Min(alpha.phase1) = -9.617248e-012  Max(alpha.phase1) = 1.000079
MULES: Solving for alpha.phase1
MULES: Solving for alpha.phase1
Phase-1 volume fraction = 0.6158293  Min(alpha.phase1) = -8.762472e-012  Max(alpha.phase1) = 1.000078
GAMG:  Solving for p_rgh, Initial residual = 0.0001362713, Final residual = 5.778687e-007, No Iterations 4
GAMG:  Solving for p_rgh, Initial residual = 1.094154e-005, Final residual = 4.273527e-007, No Iterations 2
GAMG:  Solving for p_rgh, Initial residual = 1.493926e-006, Final residual = 2.468544e-007, No Iterations 1
time step continuity errors : sum local = 3.036435e-010, global = 1.067863e-011, cumulative = 7.867015e-011
PIMPLE: iteration 2
MULES: Solving for alpha.phase1
MULES: Solving for alpha.phase1
Phase-1 volume fraction = 0.6158293  Min(alpha.phase1) = -9.642076e-012  Max(alpha.phase1) = 1.000079
MULES: Solving for alpha.phase1
MULES: Solving for alpha.phase1
Phase-1 volume fraction = 0.6158293  Min(alpha.phase1) = -8.798733e-012  Max(alpha.phase1) = 1.000078
GAMG:  Solving for p_rgh, Initial residual = 7.540438e-006, Final residual = 3.347531e-007, No Iterations 2
GAMG:  Solving for p_rgh, Initial residual = 1.428972e-006, Final residual = 2.391393e-007, No Iterations 1
GAMG:  Solving for p_rgh, Initial residual = 4.117346e-007, Final residual = 1.236091e-007, No Iterations 1
time step continuity errors : sum local = 1.520977e-010, global = 2.603384e-012, cumulative = 8.127354e-011
DILUPBiCGStab:  Solving for omega, Initial residual = 0.0001593475, Final residual = 3.32982e-009, No Iterations 1
bounding omega, min: -0.06104568 max: 3160.915 average: 21.57047
DILUPBiCGStab:  Solving for k, Initial residual = 0.004112124, Final residual = 2.315934e-007, No Iterations 1
PIMPLE: converged in 2 iterations
ExecutionTime = 9.717 s  ClockTime = 10 s

forces forceMonitorOnBoatInDefault write:
    Sum of forces
        Total    : (254.2109 -790.4871 1831.463)
        Pressure : (238.2853 -790.7451 1831.513)
        Viscous  : (15.92565 0.2580403 -0.05085188)
    Sum of moments
        Total    : (114.6709 2502.089 1299.84)
        Pressure : (114.6383 2506.671 1304.651)
        Viscous  : (0.03255452 -4.582122 -4.810208)


Courant Number mean: 0.002714172 max: 0.3152938
Interface Courant Number mean: 4.970186e-007 max: 0.2657949
deltaT = 0.0003562596
Time = 0.00154869

PIMPLE: iteration 1
forces forces:
    Not including porosity effects

Restraint linearRestraint:  force (-0 -0 -2.182778)
Restraint angularRestraint:  moment (-0 -2.265208 -0)
6-DoF rigid body motion
    Centre of rotation: (-1.1 0 -0.13841)
    Centre of mass: (-1.1 0 -0.13841)
    Orientation: (1 0 9.514575e-005 0 1 0 -9.514575e-005 0 1)
    Linear velocity: (0 0 0.07480496)
    Angular velocity: (0 0.07592679 0)
MULES: Solving for alpha.phase1
MULES: Solving for alpha.phase1
Phase-1 volume fraction = 0.6158293  Min(alpha.phase1) = -7.869814e-012  Max(alpha.phase1) = 1.000077
MULES: Solving for alpha.phase1
MULES: Solving for alpha.phase1
Phase-1 volume fraction = 0.6158294  Min(alpha.phase1) = -7.016616e-012  Max(alpha.phase1) = 1.000076
GAMG:  Solving for p_rgh, Initial residual = 0.0001259798, Final residual = 7.081414e-007, No Iterations 3
GAMG:  Solving for p_rgh, Initial residual = 9.921012e-006, Final residual = 9.956887e-007, No Iterations 1
GAMG:  Solving for p_rgh, Initial residual = 1.601206e-006, Final residual = 3.499429e-007, No Iterations 1
time step continuity errors : sum local = 5.882066e-010, global = 7.120614e-012, cumulative = 8.839415e-011
PIMPLE: iteration 2
MULES: Solving for alpha.phase1
MULES: Solving for alpha.phase1
Phase-1 volume fraction = 0.6158294  Min(alpha.phase1) = -7.896748e-012  Max(alpha.phase1) = 1.000078
MULES: Solving for alpha.phase1
MULES: Solving for alpha.phase1
Phase-1 volume fraction = 0.6158294  Min(alpha.phase1) = -7.061025e-012  Max(alpha.phase1) = 1.000078
GAMG:  Solving for p_rgh, Initial residual = 7.488334e-006, Final residual = 7.948807e-007, No Iterations 1
GAMG:  Solving for p_rgh, Initial residual = 1.499819e-006, Final residual = 2.798004e-007, No Iterations 1
GAMG:  Solving for p_rgh, Initial residual = 4.767512e-007, Final residual = 1.143142e-007, No Iterations 1
time step continuity errors : sum local = 1.92211e-010, global = 1.232523e-012, cumulative = 8.962667e-011
DILUPBiCGStab:  Solving for omega, Initial residual = 0.00018651, Final residual = 5.644487e-009, No Iterations 1
bounding omega, min: -0.004029557 max: 3177.411 average: 21.939
DILUPBiCGStab:  Solving for k, Initial residual = 0.003594424, Final residual = 2.671774e-007, No Iterations 1
PIMPLE: converged in 2 iterations
ExecutionTime = 10.779 s  ClockTime = 11 s

forces forceMonitorOnBoatInDefault write:
    Sum of forces
        Total    : (190.928 -732.0991 1773.356)
        Pressure : (175.2477 -732.3626 1773.387)
        Viscous  : (15.6803 0.2635019 -0.03109286)
    Sum of moments
        Total    : (117.3161 2352.493 1168.957)
        Pressure : (117.2794 2357 1173.73)
        Viscous  : (0.0367754 -4.507047 -4.772636)


Courant Number mean: 0.003229529 max: 0.3622143
Interface Courant Number mean: 6.815116e-007 max: 0.3172658
deltaT = 0.0004141137
Time = 0.00196281

PIMPLE: iteration 1
forces forces:
    Not including porosity effects

Restraint linearRestraint:  force (-0 -0 -2.244149)
Restraint angularRestraint:  moment (-0 -2.277804 -0)
6-DoF rigid body motion
    Centre of rotation: (-1.1 0 -0.1383786)
    Centre of mass: (-1.1 0 -0.1383786)
    Orientation: (1 0 0.0001266696 0 1 0 -0.0001266696 0 1)
    Linear velocity: (0 0 0.07695488)
    Angular velocity: (0 0.07632071 0)
MULES: Solving for alpha.phase1
MULES: Solving for alpha.phase1
Phase-1 volume fraction = 0.6158294  Min(alpha.phase1) = -6.184577e-012  Max(alpha.phase1) = 1.000077
MULES: Solving for alpha.phase1
MULES: Solving for alpha.phase1
Phase-1 volume fraction = 0.6158295  Min(alpha.phase1) = -5.397769e-012  Max(alpha.phase1) = 1.000076
GAMG:  Solving for p_rgh, Initial residual = 0.000122734, Final residual = 7.452045e-007, No Iterations 3
GAMG:  Solving for p_rgh, Initial residual = 9.256219e-006, Final residual = 4.284339e-007, No Iterations 2
GAMG:  Solving for p_rgh, Initial residual = 1.304283e-006, Final residual = 2.363542e-007, No Iterations 1
time step continuity errors : sum local = 5.190058e-010, global = 1.539141e-011, cumulative = 1.050181e-010
PIMPLE: iteration 2
MULES: Solving for alpha.phase1
MULES: Solving for alpha.phase1
Phase-1 volume fraction = 0.6158294  Min(alpha.phase1) = -6.213154e-012  Max(alpha.phase1) = 1.00008
MULES: Solving for alpha.phase1
MULES: Solving for alpha.phase1
Phase-1 volume fraction = 0.6158295  Min(alpha.phase1) = -5.450707e-012  Max(alpha.phase1) = 1.000082
GAMG:  Solving for p_rgh, Initial residual = 7.076568e-006, Final residual = 8.241326e-007, No Iterations 1
GAMG:  Solving for p_rgh, Initial residual = 1.338578e-006, Final residual = 2.926497e-007, No Iterations 1
GAMG:  Solving for p_rgh, Initial residual = 4.513188e-007, Final residual = 1.361539e-007, No Iterations 1
time step continuity errors : sum local = 2.990474e-010, global = 5.833047e-012, cumulative = 1.108511e-010
DILUPBiCGStab:  Solving for omega, Initial residual = 0.0002126954, Final residual = 9.246888e-009, No Iterations 1
DILUPBiCGStab:  Solving for k, Initial residual = 0.003147577, Final residual = 3.024704e-007, No Iterations 1
PIMPLE: converged in 2 iterations
ExecutionTime = 11.857 s  ClockTime = 12 s

forces forceMonitorOnBoatInDefault write:
    Sum of forces
        Total    : (145.5692 -690.47 1732.016)
        Pressure : (130.1656 -690.7363 1732.026)
        Viscous  : (15.40362 0.2662412 -0.009426855)
    Sum of moments
        Total    : (119.0139 2248.058 1077.661)
        Pressure : (118.9733 2252.471 1082.382)
        Viscous  : (0.04067982 -4.413369 -4.721241)


Courant Number mean: 0.003754331 max: 0.4015177
Interface Courant Number mean: 8.786799e-007 max: 0.3704206
deltaT = 0.0004709529
Time = 0.00243376

PIMPLE: iteration 1
forces forces:
    Not including porosity effects

Restraint linearRestraint:  force (-0 -0 -2.308647)
Restraint angularRestraint:  moment (-0 -2.289621 -0)
6-DoF rigid body motion
    Centre of rotation: (-1.1 0 -0.1383418)
    Centre of mass: (-1.1 0 -0.1383418)
    Orientation: (1 0 0.0001627009 0 1 0 -0.0001627009 0 1)
    Linear velocity: (0 0 0.07920451)
    Angular velocity: (0 0.07669354 0)
MULES: Solving for alpha.phase1
MULES: Solving for alpha.phase1
Phase-1 volume fraction = 0.6158295  Min(alpha.phase1) = -4.746306e-012  Max(alpha.phase1) = 1.000079
MULES: Solving for alpha.phase1
MULES: Solving for alpha.phase1
Phase-1 volume fraction = 0.6158296  Min(alpha.phase1) = -4.51468e-012  Max(alpha.phase1) = 1.000076
GAMG:  Solving for p_rgh, Initial residual = 0.0001248818, Final residual = 5.090216e-007, No Iterations 3
GAMG:  Solving for p_rgh, Initial residual = 9.205778e-006, Final residual = 9.618185e-007, No Iterations 1
GAMG:  Solving for p_rgh, Initial residual = 1.483122e-006, Final residual = 3.116946e-007, No Iterations 1
time step continuity errors : sum local = 8.579081e-010, global = -5.04656e-012, cumulative = 1.058046e-010
PIMPLE: iteration 2
MULES: Solving for alpha.phase1
MULES: Solving for alpha.phase1
Phase-1 volume fraction = 0.6158295  Min(alpha.phase1) = -4.740824e-012  Max(alpha.phase1) = 1.000082
MULES: Solving for alpha.phase1
MULES: Solving for alpha.phase1
Phase-1 volume fraction = 0.6158296  Min(alpha.phase1) = -4.505487e-012  Max(alpha.phase1) = 1.000081
GAMG:  Solving for p_rgh, Initial residual = 7.653594e-006, Final residual = 7.630183e-007, No Iterations 1
GAMG:  Solving for p_rgh, Initial residual = 1.357057e-006, Final residual = 2.460412e-007, No Iterations 1
GAMG:  Solving for p_rgh, Initial residual = 4.170452e-007, Final residual = 9.851363e-008, No Iterations 1
time step continuity errors : sum local = 2.712127e-010, global = -7.122716e-015, cumulative = 1.057975e-010
DILUPBiCGStab:  Solving for omega, Initial residual = 0.000236539, Final residual = 1.493792e-008, No Iterations 1
DILUPBiCGStab:  Solving for k, Initial residual = 0.002755109, Final residual = 3.375493e-007, No Iterations 1
bounding k, min: 4.326664e-017 max: 0.04848793 average: 0.01019363
PIMPLE: converged in 2 iterations
ExecutionTime = 13.076 s  ClockTime = 13 s

forces forceMonitorOnBoatInDefault write:
    Sum of forces
        Total    : (109.3346 -659.2492 1700.584)
        Pressure : (94.23854 -659.5161 1700.57)
        Viscous  : (15.09602 0.2669019 0.01366123)
    Sum of moments
        Total    : (120.2578 2170.281 1009.896)
        Pressure : (120.2134 2174.585 1014.554)
        Viscous  : (0.04433063 -4.303661 -4.657778)


Courant Number mean: 0.004270083 max: 0.4412583
Interface Courant Number mean: 1.09308e-006 max: 0.4234395
deltaT = 0.0005285138
Time = 0.00296227

PIMPLE: iteration 1
forces forces:
    Not including porosity effects

Restraint linearRestraint:  force (-0 -0 -2.376135)
Restraint angularRestraint:  moment (-0 -2.300806 -0)
6-DoF rigid body motion
    Centre of rotation: (-1.1 0 -0.1382994)
    Centre of mass: (-1.1 0 -0.1382994)
    Orientation: (1 0 0.0002033292 0 1 0 -0.0002033292 0 1)
    Linear velocity: (0 0 0.08156854)
    Angular velocity: (0 0.07705204 0)
MULES: Solving for alpha.phase1
MULES: Solving for alpha.phase1
Phase-1 volume fraction = 0.6158296  Min(alpha.phase1) = -4.255961e-012  Max(alpha.phase1) = 1.00008
MULES: Solving for alpha.phase1
MULES: Solving for alpha.phase1
Phase-1 volume fraction = 0.6158297  Min(alpha.phase1) = -4.020238e-012  Max(alpha.phase1) = 1.000078
GAMG:  Solving for p_rgh, Initial residual = 0.0001363382, Final residual = 6.624169e-007, No Iterations 3
GAMG:  Solving for p_rgh, Initial residual = 9.200538e-006, Final residual = 4.154905e-007, No Iterations 2
GAMG:  Solving for p_rgh, Initial residual = 1.277273e-006, Final residual = 2.326849e-007, No Iterations 1
time step continuity errors : sum local = 7.827303e-010, global = -3.391942e-013, cumulative = 1.054583e-010
PIMPLE: iteration 2
MULES: Solving for alpha.phase1
MULES: Solving for alpha.phase1
Phase-1 volume fraction = 0.6158297  Min(alpha.phase1) = -4.248001e-012  Max(alpha.phase1) = 1.000081
MULES: Solving for alpha.phase1
MULES: Solving for alpha.phase1
Phase-1 volume fraction = 0.6158297  Min(alpha.phase1) = -4.006886e-012  Max(alpha.phase1) = 1.000081
GAMG:  Solving for p_rgh, Initial residual = 8.418328e-006, Final residual = 8.941741e-007, No Iterations 1
GAMG:  Solving for p_rgh, Initial residual = 1.310754e-006, Final residual = 2.831863e-007, No Iterations 1
GAMG:  Solving for p_rgh, Initial residual = 4.170654e-007, Final residual = 1.290252e-007, No Iterations 1
time step continuity errors : sum local = 4.341181e-010, global = 1.27719e-012, cumulative = 1.067354e-010
DILUPBiCGStab:  Solving for omega, Initial residual = 0.0002584762, Final residual = 2.138056e-008, No Iterations 1
DILUPBiCGStab:  Solving for k, Initial residual = 0.002424845, Final residual = 3.740798e-007, No Iterations 1
PIMPLE: converged in 2 iterations
ExecutionTime = 14.196 s  ClockTime = 14 s

forces forceMonitorOnBoatInDefault write:
    Sum of forces
        Total    : (81.96114 -638.0814 1679.64)
        Pressure : (67.20263 -638.3477 1679.602)
        Viscous  : (14.75851 0.2662963 0.03827314)
    Sum of moments
        Total    : (120.9074 2120.252 966.1899)
        Pressure : (120.8595 2124.431 970.7741)
        Viscous  : (0.04793831 -4.17908 -4.584172)


Courant Number mean: 0.00479255 max: 0.5040306
Interface Courant Number mean: 1.385544e-006 max: 0.4771468
deltaT = 0.000553385
Time = 0.00351566

PIMPLE: iteration 1
forces forces:
    Not including porosity effects

Restraint linearRestraint:  force (-0 -0 -2.447056)
Restraint angularRestraint:  moment (-0 -2.311561 -0)
6-DoF rigid body motion
    Centre of rotation: (-1.1 0 -0.1382536)
    Centre of mass: (-1.1 0 -0.1382536)
    Orientation: (1 0 0.0002460604 0 1 0 -0.0002460604 0 1)
    Linear velocity: (0 0 0.08392273)
    Angular velocity: (0 0.07738376 0)
MULES: Solving for alpha.phase1
MULES: Solving for alpha.phase1
Phase-1 volume fraction = 0.6158298  Min(alpha.phase1) = -3.769496e-012  Max(alpha.phase1) = 1.000078
MULES: Solving for alpha.phase1
MULES: Solving for alpha.phase1
Phase-1 volume fraction = 0.6158298  Min(alpha.phase1) = -3.546163e-012  Max(alpha.phase1) = 1.000083
GAMG:  Solving for p_rgh, Initial residual = 0.0001413969, Final residual = 4.15723e-007, No Iterations 3
GAMG:  Solving for p_rgh, Initial residual = 9.101161e-006, Final residual = 9.691509e-007, No Iterations 1
GAMG:  Solving for p_rgh, Initial residual = 1.569888e-006, Final residual = 3.121758e-007, No Iterations 1
time step continuity errors : sum local = 1.137394e-009, global = -4.007537e-011, cumulative = 6.666008e-011
PIMPLE: iteration 2
MULES: Solving for alpha.phase1
MULES: Solving for alpha.phase1
Phase-1 volume fraction = 0.6158298  Min(alpha.phase1) = -3.753111e-012  Max(alpha.phase1) = 1.00008
MULES: Solving for alpha.phase1
MULES: Solving for alpha.phase1
Phase-1 volume fraction = 0.6158299  Min(alpha.phase1) = -3.51746e-012  Max(alpha.phase1) = 1.000079
GAMG:  Solving for p_rgh, Initial residual = 1.002788e-005, Final residual = 8.042893e-007, No Iterations 1
GAMG:  Solving for p_rgh, Initial residual = 1.166471e-006, Final residual = 2.197371e-007, No Iterations 1
GAMG:  Solving for p_rgh, Initial residual = 3.406203e-007, Final residual = 9.807381e-008, No Iterations 1
time step continuity errors : sum local = 3.574024e-010, global = -3.849043e-012, cumulative = 6.281103e-011
DILUPBiCGStab:  Solving for omega, Initial residual = 0.0002631698, Final residual = 2.293348e-008, No Iterations 1
DILUPBiCGStab:  Solving for k, Initial residual = 0.002022586, Final residual = 3.528223e-007, No Iterations 1
PIMPLE: converged in 2 iterations
ExecutionTime = 15.295 s  ClockTime = 16 s

forces forceMonitorOnBoatInDefault write:
    Sum of forces
        Total    : (73.94794 -624.7618 1664.533)
        Pressure : (59.54092 -625.0265 1664.469)
        Viscous  : (14.40702 0.2646238 0.06411611)
    Sum of moments
        Total    : (121.0526 2086.538 938.2932)
        Pressure : (121.0011 2090.585 942.7981)
        Viscous  : (0.05149846 -4.047492 -4.50487)


Courant Number mean: 0.005018705 max: 0.5358495
Interface Courant Number mean: 1.823317e-006 max: 0.4965794
deltaT = 0.0005600523
Time = 0.00407571

PIMPLE: iteration 1
forces forces:
    Not including porosity effects

Restraint linearRestraint:  force (-0 -0 -2.517682)
Restraint angularRestraint:  moment (-0 -2.321513 -0)
6-DoF rigid body motion
    Centre of rotation: (-1.1 0 -0.1382059)
    Centre of mass: (-1.1 0 -0.1382059)
    Orientation: (1 0 0.0002894857 0 1 0 -0.0002894857 0 1)
    Linear velocity: (0 0 0.08622083)
    Angular velocity: (0 0.07769212 0)
MULES: Solving for alpha.phase1
MULES: Solving for alpha.phase1
Phase-1 volume fraction = 0.6158299  Min(alpha.phase1) = -3.293816e-012  Max(alpha.phase1) = 1.000076
MULES: Solving for alpha.phase1
MULES: Solving for alpha.phase1
Phase-1 volume fraction = 0.61583  Min(alpha.phase1) = -3.084463e-012  Max(alpha.phase1) = 1.000074
GAMG:  Solving for p_rgh, Initial residual = 0.0001363697, Final residual = 4.989159e-007, No Iterations 3
GAMG:  Solving for p_rgh, Initial residual = 8.661899e-006, Final residual = 3.67609e-007, No Iterations 2
GAMG:  Solving for p_rgh, Initial residual = 1.245059e-006, Final residual = 2.314138e-007, No Iterations 1
time step continuity errors : sum local = 8.610292e-010, global = -3.960809e-011, cumulative = 2.320294e-011
PIMPLE: iteration 2
MULES: Solving for alpha.phase1
MULES: Solving for alpha.phase1
Phase-1 volume fraction = 0.6158299  Min(alpha.phase1) = -3.280788e-012  Max(alpha.phase1) = 1.00007
MULES: Solving for alpha.phase1
MULES: Solving for alpha.phase1
Phase-1 volume fraction = 0.61583  Min(alpha.phase1) = -3.062327e-012  Max(alpha.phase1) = 1.000062
GAMG:  Solving for p_rgh, Initial residual = 6.558711e-006, Final residual = 7.450466e-007, No Iterations 1
GAMG:  Solving for p_rgh, Initial residual = 1.059951e-006, Final residual = 2.365323e-007, No Iterations 1
GAMG:  Solving for p_rgh, Initial residual = 3.361369e-007, Final residual = 1.151777e-007, No Iterations 1
time step continuity errors : sum local = 4.286163e-010, global = -9.119331e-012, cumulative = 1.408361e-011
DILUPBiCGStab:  Solving for omega, Initial residual = 0.0002589531, Final residual = 2.291331e-008, No Iterations 1
DILUPBiCGStab:  Solving for k, Initial residual = 0.001671014, Final residual = 3.100711e-007, No Iterations 1
bounding k, min: 8.715692e-016 max: 0.1177141 average: 0.01035245
PIMPLE: converged in 2 iterations
ExecutionTime = 16.415 s  ClockTime = 17 s

forces forceMonitorOnBoatInDefault write:
    Sum of forces
        Total    : (70.87603 -617.1447 1654.41)
        Pressure : (56.82294 -617.4069 1654.32)
        Viscous  : (14.05309 0.2621967 0.08959954)
    Sum of moments
        Total    : (120.942 2065.408 923.1254)
        Pressure : (120.8871 2069.321 927.5483)
        Viscous  : (0.05488293 -3.913631 -4.422899)


Courant Number mean: 0.005079803 max: 0.5491331
Interface Courant Number mean: 2.312792e-006 max: 0.4900997
deltaT = 0.0005740536
Time = 0.00464976

PIMPLE: iteration 1
forces forces:
    Not including porosity effects

Restraint linearRestraint:  force (-0 -0 -2.586625)
Restraint angularRestraint:  moment (-0 -2.330764 -0)
6-DoF rigid body motion
    Centre of rotation: (-1.1 0 -0.1381558)
    Centre of mass: (-1.1 0 -0.1381558)
    Orientation: (0.9999999 0 0.0003341712 0 1 0 -0.0003341712 0 0.9999999)
    Linear velocity: (0 0 0.08851571)
    Angular velocity: (0 0.07799182 0)
MULES: Solving for alpha.phase1
MULES: Solving for alpha.phase1
Phase-1 volume fraction = 0.6158301  Min(alpha.phase1) = -2.853848e-012  Max(alpha.phase1) = 1.000063
MULES: Solving for alpha.phase1
MULES: Solving for alpha.phase1
Phase-1 volume fraction = 0.6158301  Min(alpha.phase1) = -2.659705e-012  Max(alpha.phase1) = 1.000067
GAMG:  Solving for p_rgh, Initial residual = 0.0001375654, Final residual = 3.572597e-007, No Iterations 3
GAMG:  Solving for p_rgh, Initial residual = 8.565821e-006, Final residual = 9.441873e-007, No Iterations 1
GAMG:  Solving for p_rgh, Initial residual = 1.53148e-006, Final residual = 3.06103e-007, No Iterations 1
time step continuity errors : sum local = 1.18866e-009, global = -6.964332e-011, cumulative = -5.555971e-011
PIMPLE: iteration 2
MULES: Solving for alpha.phase1
MULES: Solving for alpha.phase1
Phase-1 volume fraction = 0.6158301  Min(alpha.phase1) = -2.840504e-012  Max(alpha.phase1) = 1.000061
MULES: Solving for alpha.phase1
MULES: Solving for alpha.phase1
Phase-1 volume fraction = 0.6158301  Min(alpha.phase1) = -2.637346e-012  Max(alpha.phase1) = 1.000061
GAMG:  Solving for p_rgh, Initial residual = 6.804666e-006, Final residual = 6.297219e-007, No Iterations 1
GAMG:  Solving for p_rgh, Initial residual = 9.230997e-007, Final residual = 9.230997e-007, No Iterations 0
GAMG:  Solving for p_rgh, Initial residual = 9.230997e-007, Final residual = 1.935426e-007, No Iterations 1
time step continuity errors : sum local = 7.516404e-010, global = -2.39054e-011, cumulative = -7.94651e-011
DILUPBiCGStab:  Solving for omega, Initial residual = 0.0002581416, Final residual = 2.309722e-008, No Iterations 1
DILUPBiCGStab:  Solving for k, Initial residual = 0.001432165, Final residual = 2.895263e-007, No Iterations 1
PIMPLE: converged in 2 iterations
ExecutionTime = 17.598 s  ClockTime = 18 s

forces forceMonitorOnBoatInDefault write:
    Sum of forces
        Total    : (69.40657 -611.6859 1646.501)
        Pressure : (55.71215 -611.9449 1646.387)
        Viscous  : (13.69442 0.2590417 0.1138996)
    Sum of moments
        Total    : (120.7811 2050.074 912.4978)
        Pressure : (120.7231 2053.851 916.8356)
        Viscous  : (0.05799203 -3.777161 -4.337787)


Courant Number mean: 0.005207455 max: 0.5689445
Interface Courant Number mean: 2.719408e-006 max: 0.4946693
deltaT = 0.0005814133
Time = 0.00523118

PIMPLE: iteration 1
forces forces:
    Not including porosity effects

Restraint linearRestraint:  force (-0 -0 -2.655471)
Restraint angularRestraint:  moment (-0 -2.339755 -0)
6-DoF rigid body motion
    Centre of rotation: (-1.1 0 -0.1381036)
    Centre of mass: (-1.1 0 -0.1381036)
    Orientation: (0.9999999 0 0.000379602 0 1 0 -0.000379602 0 0.9999999)
    Linear velocity: (0 0 0.09079598)
    Angular velocity: (0 0.07828542 0)
MULES: Solving for alpha.phase1
MULES: Solving for alpha.phase1
Phase-1 volume fraction = 0.6158302  Min(alpha.phase1) = -2.446463e-012  Max(alpha.phase1) = 1.000057
MULES: Solving for alpha.phase1
MULES: Solving for alpha.phase1
Phase-1 volume fraction = 0.6158303  Min(alpha.phase1) = -2.269627e-012  Max(alpha.phase1) = 1.000054
GAMG:  Solving for p_rgh, Initial residual = 0.0001266953, Final residual = 4.514862e-007, No Iterations 3
GAMG:  Solving for p_rgh, Initial residual = 8.330472e-006, Final residual = 3.650984e-007, No Iterations 2
GAMG:  Solving for p_rgh, Initial residual = 1.192924e-006, Final residual = 2.236604e-007, No Iterations 1
time step continuity errors : sum local = 8.878577e-010, global = -3.507456e-011, cumulative = -1.145397e-010
PIMPLE: iteration 2
MULES: Solving for alpha.phase1
MULES: Solving for alpha.phase1
Phase-1 volume fraction = 0.6158302  Min(alpha.phase1) = -2.437077e-012  Max(alpha.phase1) = 1.000052
MULES: Solving for alpha.phase1
MULES: Solving for alpha.phase1
Phase-1 volume fraction = 0.6158303  Min(alpha.phase1) = -2.254736e-012  Max(alpha.phase1) = 1.00005
GAMG:  Solving for p_rgh, Initial residual = 5.161716e-006, Final residual = 5.855863e-007, No Iterations 1
GAMG:  Solving for p_rgh, Initial residual = 8.637065e-007, Final residual = 8.637065e-007, No Iterations 0
GAMG:  Solving for p_rgh, Initial residual = 8.637065e-007, Final residual = 2.013659e-007, No Iterations 1
time step continuity errors : sum local = 7.994432e-010, global = -3.914134e-012, cumulative = -1.184538e-010
DILUPBiCGStab:  Solving for omega, Initial residual = 0.0002545354, Final residual = 2.205754e-008, No Iterations 1
DILUPBiCGStab:  Solving for k, Initial residual = 0.001235517, Final residual = 2.659929e-007, No Iterations 1
PIMPLE: converged in 2 iterations
ExecutionTime = 18.67 s  ClockTime = 19 s

forces forceMonitorOnBoatInDefault write:
    Sum of forces
        Total    : (68.00592 -606.1133 1638.241)
        Pressure : (54.66968 -606.3685 1638.104)
        Viscous  : (13.33623 0.255163 0.1363872)
    Sum of moments
        Total    : (120.6619 2033.713 901.3054)
        Pressure : (120.6011 2037.353 905.556)
        Viscous  : (0.06071491 -3.640347 -4.250634)


Courant Number mean: 0.005274885 max: 0.5813649
Interface Courant Number mean: 3.171033e-006 max: 0.4981883
deltaT = 0.0005814133
Time = 0.00581259

PIMPLE: iteration 1
forces forces:
    Not including porosity effects

Restraint linearRestraint:  force (-0 -0 -2.723879)
Restraint angularRestraint:  moment (-0 -2.348562 -0)
6-DoF rigid body motion
    Centre of rotation: (-1.1 0 -0.1380502)
    Centre of mass: (-1.1 0 -0.1380502)
    Orientation: (0.9999999 0 0.0004252012 0 1 0 -0.0004252012 0 0.9999999)
    Linear velocity: (0 0 0.09303675)
    Angular velocity: (0 0.07857076 0)
MULES: Solving for alpha.phase1
MULES: Solving for alpha.phase1
Phase-1 volume fraction = 0.6158304  Min(alpha.phase1) = -2.086289e-012  Max(alpha.phase1) = 1.00006
MULES: Solving for alpha.phase1
MULES: Solving for alpha.phase1
Phase-1 volume fraction = 0.6158305  Min(alpha.phase1) = -1.93071e-012  Max(alpha.phase1) = 1.000069
GAMG:  Solving for p_rgh, Initial residual = 0.000128494, Final residual = 2.839834e-007, No Iterations 3
GAMG:  Solving for p_rgh, Initial residual = 8.056557e-006, Final residual = 8.83445e-007, No Iterations 1
GAMG:  Solving for p_rgh, Initial residual = 1.391597e-006, Final residual = 2.701925e-007, No Iterations 1
time step continuity errors : sum local = 1.072619e-009, global = -5.596361e-011, cumulative = -1.744174e-010
PIMPLE: iteration 2
MULES: Solving for alpha.phase1
MULES: Solving for alpha.phase1
Phase-1 volume fraction = 0.6158304  Min(alpha.phase1) = -2.079149e-012  Max(alpha.phase1) = 1.000049
MULES: Solving for alpha.phase1
MULES: Solving for alpha.phase1
Phase-1 volume fraction = 0.6158305  Min(alpha.phase1) = -1.919855e-012  Max(alpha.phase1) = 1.000047
GAMG:  Solving for p_rgh, Initial residual = 5.031452e-006, Final residual = 5.101979e-007, No Iterations 1
GAMG:  Solving for p_rgh, Initial residual = 7.611474e-007, Final residual = 7.611474e-007, No Iterations 0
GAMG:  Solving for p_rgh, Initial residual = 7.611474e-007, Final residual = 1.628187e-007, No Iterations 1
time step continuity errors : sum local = 6.464297e-010, global = -1.160649e-011, cumulative = -1.860239e-010
DILUPBiCGStab:  Solving for omega, Initial residual = 0.000247481, Final residual = 2.024408e-008, No Iterations 1
DILUPBiCGStab:  Solving for k, Initial residual = 0.001067227, Final residual = 2.325164e-007, No Iterations 1
PIMPLE: converged in 2 iterations
ExecutionTime = 19.719 s  ClockTime = 20 s

forces forceMonitorOnBoatInDefault write:
    Sum of forces
        Total    : (66.99826 -601.76 1631.614)
        Pressure : (54.01485 -602.0108 1631.457)
        Viscous  : (12.98341 0.2508669 0.1567134)
    Sum of moments
        Total    : (120.6077 2020.716 892.2868)
        Pressure : (120.5447 2024.222 896.45)
        Viscous  : (0.06303153 -3.50561 -4.163261)


Courant Number mean: 0.00527555 max: 0.5853808
Interface Courant Number mean: 3.558265e-006 max: 0.4959725
deltaT = 0.0005891655
Time = 0.00640176

PIMPLE: iteration 1
forces forces:
    Not including porosity effects

Restraint linearRestraint:  force (-0 -0 -2.791103)
Restraint angularRestraint:  moment (-0 -2.357123 -0)
6-DoF rigid body motion
    Centre of rotation: (-1.1 0 -0.1379947)
    Centre of mass: (-1.1 0 -0.1379947)
    Orientation: (0.9999999 0 0.0004715752 0 1 0 -0.0004715752 0 0.9999999)
    Linear velocity: (0 0 0.09527052)
    Angular velocity: (0 0.07885214 0)
MULES: Solving for alpha.phase1
MULES: Solving for alpha.phase1
Phase-1 volume fraction = 0.6158306  Min(alpha.phase1) = -1.771252e-012  Max(alpha.phase1) = 1.000046
MULES: Solving for alpha.phase1
MULES: Solving for alpha.phase1
Phase-1 volume fraction = 0.6158306  Min(alpha.phase1) = -1.634474e-012  Max(alpha.phase1) = 1.000045
GAMG:  Solving for p_rgh, Initial residual = 0.0001228458, Final residual = 3.996773e-007, No Iterations 3
GAMG:  Solving for p_rgh, Initial residual = 7.934645e-006, Final residual = 3.442322e-007, No Iterations 2
GAMG:  Solving for p_rgh, Initial residual = 1.08227e-006, Final residual = 2.019773e-007, No Iterations 1
time step continuity errors : sum local = 8.203186e-010, global = -3.793094e-011, cumulative = -2.239548e-010
PIMPLE: iteration 2
MULES: Solving for alpha.phase1
MULES: Solving for alpha.phase1
Phase-1 volume fraction = 0.6158306  Min(alpha.phase1) = -1.763406e-012  Max(alpha.phase1) = 1.000046
MULES: Solving for alpha.phase1
MULES: Solving for alpha.phase1
Phase-1 volume fraction = 0.6158306  Min(alpha.phase1) = -1.622353e-012  Max(alpha.phase1) = 1.000046
GAMG:  Solving for p_rgh, Initial residual = 4.85213e-006, Final residual = 5.207371e-007, No Iterations 1
GAMG:  Solving for p_rgh, Initial residual = 7.672e-007, Final residual = 7.672e-007, No Iterations 0
GAMG:  Solving for p_rgh, Initial residual = 7.672e-007, Final residual = 1.854933e-007, No Iterations 1
time step continuity errors : sum local = 7.534329e-010, global = -3.913258e-012, cumulative = -2.278681e-010
DILUPBiCGStab:  Solving for omega, Initial residual = 0.0002440713, Final residual = 1.989632e-008, No Iterations 1
DILUPBiCGStab:  Solving for k, Initial residual = 0.0009481768, Final residual = 2.036258e-007, No Iterations 1
bounding k, min: 4.401687e-018 max: 0.2669141 average: 0.01060435
PIMPLE: converged in 2 iterations
ExecutionTime = 20.851 s  ClockTime = 21 s

forces forceMonitorOnBoatInDefault write:
    Sum of forces
        Total    : (66.53935 -597.4241 1625.08)
        Pressure : (53.90754 -597.6703 1624.905)
        Viscous  : (12.6318 0.2462383 0.1751436)
    Sum of moments
        Total    : (120.5618 2008.357 883.1394)
        Pressure : (120.4968 2011.729 887.2142)
        Viscous  : (0.06497426 -3.371726 -4.074865)


Courant Number mean: 0.005346571 max: 0.5965023
Interface Courant Number mean: 4.039322e-006 max: 0.5002458
deltaT = 0.0005891655
Time = 0.00699092

PIMPLE: iteration 1
forces forces:
    Not including porosity effects

Restraint linearRestraint:  force (-0 -0 -2.858116)
Restraint angularRestraint:  moment (-0 -2.365564 -0)
6-DoF rigid body motion
    Centre of rotation: (-1.1 0 -0.137938)
    Centre of mass: (-1.1 0 -0.137938)
    Orientation: (0.9999999 0 0.0005181132 0 1 0 -0.0005181132 0 0.9999999)
    Linear velocity: (0 0 0.09747166)
    Angular velocity: (0 0.07912707 0)
MULES: Solving for alpha.phase1
MULES: Solving for alpha.phase1
Phase-1 volume fraction = 0.6158307  Min(alpha.phase1) = -1.492905e-012  Max(alpha.phase1) = 1.000052
MULES: Solving for alpha.phase1
MULES: Solving for alpha.phase1
Phase-1 volume fraction = 0.6158308  Min(alpha.phase1) = -1.374152e-012  Max(alpha.phase1) = 1.000058
GAMG:  Solving for p_rgh, Initial residual = 0.0001142831, Final residual = 2.553268e-007, No Iterations 3
GAMG:  Solving for p_rgh, Initial residual = 7.720605e-006, Final residual = 8.567255e-007, No Iterations 1
GAMG:  Solving for p_rgh, Initial residual = 1.318092e-006, Final residual = 2.631927e-007, No Iterations 1
time step continuity errors : sum local = 1.068834e-009, global = -3.171176e-011, cumulative = -2.595798e-010
PIMPLE: iteration 2
MULES: Solving for alpha.phase1
MULES: Solving for alpha.phase1
Phase-1 volume fraction = 0.6158307  Min(alpha.phase1) = -1.487938e-012  Max(alpha.phase1) = 1.000044
MULES: Solving for alpha.phase1
MULES: Solving for alpha.phase1
Phase-1 volume fraction = 0.6158308  Min(alpha.phase1) = -1.372393e-012  Max(alpha.phase1) = 1.000042
GAMG:  Solving for p_rgh, Initial residual = 4.282451e-006, Final residual = 4.650925e-007, No Iterations 1
GAMG:  Solving for p_rgh, Initial residual = 7.047326e-007, Final residual = 7.047326e-007, No Iterations 0
GAMG:  Solving for p_rgh, Initial residual = 7.047326e-007, Final residual = 1.465069e-007, No Iterations 1
time step continuity errors : sum local = 5.95022e-010, global = 3.693012e-012, cumulative = -2.558868e-010
DILUPBiCGStab:  Solving for omega, Initial residual = 0.0002380747, Final residual = 1.91191e-008, No Iterations 1
DILUPBiCGStab:  Solving for k, Initial residual = 0.0008420718, Final residual = 1.749244e-007, No Iterations 1
PIMPLE: converged in 2 iterations
ExecutionTime = 21.977 s  ClockTime = 22 s

forces forceMonitorOnBoatInDefault write:
    Sum of forces
        Total    : (65.86465 -593.1252 1618.879)
        Pressure : (53.57854 -593.3666 1618.688)
        Viscous  : (12.28612 0.2414195 0.1918324)
    Sum of moments
        Total    : (120.551 1996.804 873.9153)
        Pressure : (120.4844 2000.044 877.9022)
        Viscous  : (0.0665896 -3.240807 -3.986875)


Courant Number mean: 0.00534725 max: 0.5990075
Interface Courant Number mean: 4.572817e-006 max: 0.4980079
deltaT = 0.0005891655
Time = 0.00758009

PIMPLE: iteration 1
forces forces:
    Not including porosity effects

Restraint linearRestraint:  force (-0 -0 -2.92415)
Restraint angularRestraint:  moment (-0 -2.373812 -0)
6-DoF rigid body motion
    Centre of rotation: (-1.1 0 -0.1378799)
    Centre of mass: (-1.1 0 -0.1378799)
    Orientation: (0.9999998 0 0.0005648114 0 1 0 -0.0005648114 0 0.9999998)
    Linear velocity: (0 0 0.0996412)
    Angular velocity: (0 0.07939613 0)
MULES: Solving for alpha.phase1
MULES: Solving for alpha.phase1
Phase-1 volume fraction = 0.6158309  Min(alpha.phase1) = -1.290646e-012  Max(alpha.phase1) = 1.000042
MULES: Solving for alpha.phase1
MULES: Solving for alpha.phase1
Phase-1 volume fraction = 0.615831  Min(alpha.phase1) = -1.213775e-012  Max(alpha.phase1) = 1.000041
GAMG:  Solving for p_rgh, Initial residual = 0.0001210732, Final residual = 3.866646e-007, No Iterations 3
GAMG:  Solving for p_rgh, Initial residual = 7.571401e-006, Final residual = 3.474632e-007, No Iterations 2
GAMG:  Solving for p_rgh, Initial residual = 1.046621e-006, Final residual = 1.982578e-007, No Iterations 1
time step continuity errors : sum local = 8.05128e-010, global = -3.469926e-011, cumulative = -2.905861e-010
PIMPLE: iteration 2
MULES: Solving for alpha.phase1
MULES: Solving for alpha.phase1
Phase-1 volume fraction = 0.6158309  Min(alpha.phase1) = -1.290678e-012  Max(alpha.phase1) = 1.000041
MULES: Solving for alpha.phase1
MULES: Solving for alpha.phase1
Phase-1 volume fraction = 0.615831  Min(alpha.phase1) = -1.214426e-012  Max(alpha.phase1) = 1.000039
GAMG:  Solving for p_rgh, Initial residual = 4.267262e-006, Final residual = 4.779278e-007, No Iterations 1
GAMG:  Solving for p_rgh, Initial residual = 7.044098e-007, Final residual = 7.044098e-007, No Iterations 0
GAMG:  Solving for p_rgh, Initial residual = 7.044098e-007, Final residual = 1.671377e-007, No Iterations 1
time step continuity errors : sum local = 6.787992e-010, global = -1.531619e-012, cumulative = -2.921177e-010
DILUPBiCGStab:  Solving for omega, Initial residual = 0.0002321218, Final residual = 1.819929e-008, No Iterations 1
DILUPBiCGStab:  Solving for k, Initial residual = 0.0007572433, Final residual = 1.518503e-007, No Iterations 1
PIMPLE: converged in 2 iterations
ExecutionTime = 23.022 s  ClockTime = 23 s

forces forceMonitorOnBoatInDefault write:
    Sum of forces
        Total    : (65.88748 -589.6352 1613.531)
        Pressure : (53.94082 -589.8717 1613.324)
        Viscous  : (11.94666 0.2364724 0.2068072)
    Sum of moments
        Total    : (120.5724 1986.659 866.1627)
        Pressure : (120.5045 1989.772 870.062)
        Viscous  : (0.06790477 -3.112894 -3.899285)


Courant Number mean: 0.005347918 max: 0.6009756
Interface Courant Number mean: 5.127679e-006 max: 0.4961515
deltaT = 0.0005974636
Time = 0.00817755

PIMPLE: iteration 1
forces forces:
    Not including porosity effects

Restraint linearRestraint:  force (-0 -0 -2.989236)
Restraint angularRestraint:  moment (-0 -2.381884 -0)
6-DoF rigid body motion
    Centre of rotation: (-1.1 0 -0.1378197)
    Centre of mass: (-1.1 0 -0.1378197)
    Orientation: (0.9999998 0 0.0006123276 0 1 0 -0.0006123276 0 0.9999998)
    Linear velocity: (0 0 0.1018122)
    Angular velocity: (0 0.07966364 0)
MULES: Solving for alpha.phase1
MULES: Solving for alpha.phase1
Phase-1 volume fraction = 0.6158311  Min(alpha.phase1) = -1.141809e-012  Max(alpha.phase1) = 1.000043
MULES: Solving for alpha.phase1
MULES: Solving for alpha.phase1
Phase-1 volume fraction = 0.6158312  Min(alpha.phase1) = -1.073539e-012  Max(alpha.phase1) = 1.000048
GAMG:  Solving for p_rgh, Initial residual = 0.0001230518, Final residual = 3.435277e-007, No Iterations 3
GAMG:  Solving for p_rgh, Initial residual = 7.588359e-006, Final residual = 8.886161e-007, No Iterations 1
GAMG:  Solving for p_rgh, Initial residual = 1.337937e-006, Final residual = 2.756491e-007, No Iterations 1
time step continuity errors : sum local = 1.14653e-009, global = -5.594909e-011, cumulative = -3.480668e-010
PIMPLE: iteration 2
MULES: Solving for alpha.phase1
MULES: Solving for alpha.phase1
Phase-1 volume fraction = 0.6158311  Min(alpha.phase1) = -1.141752e-012  Max(alpha.phase1) = 1.000037
MULES: Solving for alpha.phase1
MULES: Solving for alpha.phase1
Phase-1 volume fraction = 0.6158312  Min(alpha.phase1) = -1.073963e-012  Max(alpha.phase1) = 1.000035
GAMG:  Solving for p_rgh, Initial residual = 4.139122e-006, Final residual = 4.556633e-007, No Iterations 1
GAMG:  Solving for p_rgh, Initial residual = 6.780395e-007, Final residual = 6.780395e-007, No Iterations 0
GAMG:  Solving for p_rgh, Initial residual = 6.780395e-007, Final residual = 1.411108e-007, No Iterations 1
time step continuity errors : sum local = 5.86992e-010, global = -7.449384e-012, cumulative = -3.555162e-010
DILUPBiCGStab:  Solving for omega, Initial residual = 0.0002295282, Final residual = 1.816098e-008, No Iterations 1
DILUPBiCGStab:  Solving for k, Initial residual = 0.0006972932, Final residual = 1.386824e-007, No Iterations 1
PIMPLE: converged in 2 iterations
ExecutionTime = 24.232 s  ClockTime = 25 s

forces forceMonitorOnBoatInDefault write:
    Sum of forces
        Total    : (65.38089 -585.6124 1607.781)
        Pressure : (53.77216 -585.8438 1607.56)
        Viscous  : (11.60874 0.2314016 0.2204862)
    Sum of moments
        Total    : (120.5637 1976.241 857.4345)
        Pressure : (120.4947 1979.227 861.2456)
        Viscous  : (0.0689721 -2.986549 -3.811086)


Courant Number mean: 0.005423929 max: 0.6109264
Interface Courant Number mean: 5.821489e-006 max: 0.5006232
deltaT = 0.0005974636
Time = 0.00877501

PIMPLE: iteration 1
forces forces:
    Not including porosity effects

Restraint linearRestraint:  force (-0 -0 -3.054367)
Restraint angularRestraint:  moment (-0 -2.389909 -0)
6-DoF rigid body motion
    Centre of rotation: (-1.1 0 -0.1377582)
    Centre of mass: (-1.1 0 -0.1377582)
    Orientation: (0.9999998 0 0.0006600021 0 1 0 -0.0006600021 0 0.9999998)
    Linear velocity: (0 0 0.1039553)
    Angular velocity: (0 0.07992618 0)
MULES: Solving for alpha.phase1
MULES: Solving for alpha.phase1
Phase-1 volume fraction = 0.6158313  Min(alpha.phase1) = -1.016375e-012  Max(alpha.phase1) = 1.000035
MULES: Solving for alpha.phase1
MULES: Solving for alpha.phase1
Phase-1 volume fraction = 0.6158314  Min(alpha.phase1) = -9.785505e-013  Max(alpha.phase1) = 1.000035
GAMG:  Solving for p_rgh, Initial residual = 0.0001219877, Final residual = 3.776945e-007, No Iterations 3
GAMG:  Solving for p_rgh, Initial residual = 7.327758e-006, Final residual = 3.420903e-007, No Iterations 2
GAMG:  Solving for p_rgh, Initial residual = 1.029984e-006, Final residual = 1.914431e-007, No Iterations 1
time step continuity errors : sum local = 7.962042e-010, global = -3.809471e-011, cumulative = -3.936109e-010
PIMPLE: iteration 2
MULES: Solving for alpha.phase1
MULES: Solving for alpha.phase1
Phase-1 volume fraction = 0.6158313  Min(alpha.phase1) = -1.017013e-012  Max(alpha.phase1) = 1.000034
MULES: Solving for alpha.phase1
MULES: Solving for alpha.phase1
Phase-1 volume fraction = 0.6158314  Min(alpha.phase1) = -9.794565e-013  Max(alpha.phase1) = 1.000033
GAMG:  Solving for p_rgh, Initial residual = 4.205042e-006, Final residual = 4.779946e-007, No Iterations 1
GAMG:  Solving for p_rgh, Initial residual = 6.965415e-007, Final residual = 6.965415e-007, No Iterations 0
GAMG:  Solving for p_rgh, Initial residual = 6.965415e-007, Final residual = 1.680169e-007, No Iterations 1
time step continuity errors : sum local = 6.988255e-010, global = -4.355258e-012, cumulative = -3.979662e-010
DILUPBiCGStab:  Solving for omega, Initial residual = 0.0002241613, Final residual = 1.746919e-008, No Iterations 1
DILUPBiCGStab:  Solving for k, Initial residual = 0.0006382278, Final residual = 1.250138e-007, No Iterations 1
PIMPLE: converged in 2 iterations
ExecutionTime = 25.385 s  ClockTime = 26 s

forces forceMonitorOnBoatInDefault write:
    Sum of forces
        Total    : (65.60577 -582.3941 1602.726)
        Pressure : (54.32863 -582.6205 1602.493)
        Viscous  : (11.27715 0.2263887 0.2328178)
    Sum of moments
        Total    : (120.5513 1967.042 850.4387)
        Pressure : (120.4815 1969.906 854.1625)
        Viscous  : (0.06983098 -2.863785 -3.723833)


Courant Number mean: 0.005424617 max: 0.6116367
Interface Courant Number mean: 6.416974e-006 max: 0.4975357
deltaT = 0.0005974636
Time = 0.00937248

PIMPLE: iteration 1
forces forces:
    Not including porosity effects

Restraint linearRestraint:  force (-0 -0 -3.118659)
Restraint angularRestraint:  moment (-0 -2.397785 -0)
6-DoF rigid body motion
    Centre of rotation: (-1.1 0 -0.1376955)
    Centre of mass: (-1.1 0 -0.1376955)
    Orientation: (0.9999997 0 0.0007078321 0 1 0 -0.0007078321 0 0.9999997)
    Linear velocity: (0 0 0.1060712)
    Angular velocity: (0 0.08018415 0)
MULES: Solving for alpha.phase1
MULES: Solving for alpha.phase1
Phase-1 volume fraction = 0.6158315  Min(alpha.phase1) = -9.424366e-013  Max(alpha.phase1) = 1.000037
MULES: Solving for alpha.phase1
MULES: Solving for alpha.phase1
Phase-1 volume fraction = 0.6158316  Min(alpha.phase1) = -9.060179e-013  Max(alpha.phase1) = 1.000043
GAMG:  Solving for p_rgh, Initial residual = 0.0001172692, Final residual = 3.161136e-007, No Iterations 3
GAMG:  Solving for p_rgh, Initial residual = 7.21197e-006, Final residual = 8.539031e-007, No Iterations 1
GAMG:  Solving for p_rgh, Initial residual = 1.28405e-006, Final residual = 2.664586e-007, No Iterations 1
time step continuity errors : sum local = 1.107943e-009, global = -5.261071e-011, cumulative = -4.505769e-010
PIMPLE: iteration 2
MULES: Solving for alpha.phase1
MULES: Solving for alpha.phase1
Phase-1 volume fraction = 0.6158315  Min(alpha.phase1) = -9.429703e-013  Max(alpha.phase1) = 1.000031
MULES: Solving for alpha.phase1
MULES: Solving for alpha.phase1
Phase-1 volume fraction = 0.6158316  Min(alpha.phase1) = -9.068071e-013  Max(alpha.phase1) = 1.00003
GAMG:  Solving for p_rgh, Initial residual = 4.251514e-006, Final residual = 4.60692e-007, No Iterations 1
GAMG:  Solving for p_rgh, Initial residual = 6.723079e-007, Final residual = 6.723079e-007, No Iterations 0
GAMG:  Solving for p_rgh, Initial residual = 6.723079e-007, Final residual = 1.449004e-007, No Iterations 1
time step continuity errors : sum local = 6.025531e-010, global = -8.712053e-012, cumulative = -4.592889e-010
DILUPBiCGStab:  Solving for omega, Initial residual = 0.0002190482, Final residual = 1.683668e-008, No Iterations 1
DILUPBiCGStab:  Solving for k, Initial residual = 0.0005886337, Final residual = 1.150215e-007, No Iterations 1
bounding k, min: 3.20101e-016 max: 0.3496696 average: 0.01092165
PIMPLE: converged in 2 iterations
ExecutionTime = 26.825 s  ClockTime = 27 s

forces forceMonitorOnBoatInDefault write:
    Sum of forces
        Total    : (65.28366 -579.2079 1597.932)
        Pressure : (54.33187 -579.4293 1597.688)
        Viscous  : (10.95179 0.2214297 0.2437697)
    Sum of moments
        Total    : (120.523 1958.609 843.7082)
        Pressure : (120.4526 1961.354 847.3457)
        Viscous  : (0.07049621 -2.744782 -3.637487)


Courant Number mean: 0.005425304 max: 0.6117575
Interface Courant Number mean: 7.048175e-006 max: 0.4945117
deltaT = 0.0006063809
Time = 0.00997886

PIMPLE: iteration 1
forces forces:
    Not including porosity effects

Restraint linearRestraint:  force (-0 -0 -3.182135)
Restraint angularRestraint:  moment (-0 -2.405524 -0)
6-DoF rigid body motion
    Centre of rotation: (-1.1 0 -0.1376305)
    Centre of mass: (-1.1 0 -0.1376305)
    Orientation: (0.9999997 0 0.0007565324 0 1 0 -0.0007565324 0 0.9999997)
    Linear velocity: (0 0 0.1081934)
    Angular velocity: (0 0.08044191 0)
MULES: Solving for alpha.phase1
MULES: Solving for alpha.phase1
Phase-1 volume fraction = 0.6158317  Min(alpha.phase1) = -8.708497e-013  Max(alpha.phase1) = 1.00003
MULES: Solving for alpha.phase1
MULES: Solving for alpha.phase1
Phase-1 volume fraction = 0.6158318  Min(alpha.phase1) = -8.356585e-013  Max(alpha.phase1) = 1.00003
GAMG:  Solving for p_rgh, Initial residual = 0.0001139686, Final residual = 3.61386e-007, No Iterations 3
GAMG:  Solving for p_rgh, Initial residual = 7.080934e-006, Final residual = 9.560273e-007, No Iterations 1
GAMG:  Solving for p_rgh, Initial residual = 1.37052e-006, Final residual = 3.435681e-007, No Iterations 1
time step continuity errors : sum local = 1.465296e-009, global = -5.488617e-011, cumulative = -5.141751e-010
PIMPLE: iteration 2
MULES: Solving for alpha.phase1
MULES: Solving for alpha.phase1
Phase-1 volume fraction = 0.6158317  Min(alpha.phase1) = -8.713415e-013  Max(alpha.phase1) = 1.000029
MULES: Solving for alpha.phase1
MULES: Solving for alpha.phase1
Phase-1 volume fraction = 0.6158318  Min(alpha.phase1) = -8.364281e-013  Max(alpha.phase1) = 1.000028
GAMG:  Solving for p_rgh, Initial residual = 3.971969e-006, Final residual = 5.043252e-007, No Iterations 1
GAMG:  Solving for p_rgh, Initial residual = 7.342398e-007, Final residual = 7.342398e-007, No Iterations 0
GAMG:  Solving for p_rgh, Initial residual = 7.342398e-007, Final residual = 1.896858e-007, No Iterations 1
time step continuity errors : sum local = 8.090706e-010, global = -9.006799e-012, cumulative = -5.231819e-010
DILUPBiCGStab:  Solving for omega, Initial residual = 0.0002174187, Final residual = 1.693664e-008, No Iterations 1
DILUPBiCGStab:  Solving for k, Initial residual = 0.0005544463, Final residual = 1.112479e-007, No Iterations 1
PIMPLE: converged in 2 iterations
ExecutionTime = 28.067 s  ClockTime = 28 s

forces forceMonitorOnBoatInDefault write:
    Sum of forces
        Total    : (65.23552 -576.1469 1593.337)
        Pressure : (54.60727 -576.3632 1593.084)
        Viscous  : (10.62825 0.2162716 0.2535851)
    Sum of moments
        Total    : (120.5107 1950.497 837.1138)
        Pressure : (120.4397 1953.125 840.6641)
        Viscous  : (0.07096738 -2.627681 -3.550309)


Courant Number mean: 0.005506981 max: 0.6206025
Interface Courant Number mean: 7.489979e-006 max: 0.4985415
deltaT = 0.0006063809
Time = 0.0105852

PIMPLE: iteration 1
forces forces:
    Not including porosity effects

Restraint linearRestraint:  force (-0 -0 -3.245801)
Restraint angularRestraint:  moment (-0 -2.413257 -0)
6-DoF rigid body motion
    Centre of rotation: (-1.1 0 -0.1375643)
    Centre of mass: (-1.1 0 -0.1375643)
    Orientation: (0.9999997 0 0.0008053879 0 1 0 -0.0008053879 0 0.9999997)
    Linear velocity: (0 0 0.1102916)
    Angular velocity: (0 0.08069594 0)
MULES: Solving for alpha.phase1
MULES: Solving for alpha.phase1
Phase-1 volume fraction = 0.6158319  Min(alpha.phase1) = -8.02365e-013  Max(alpha.phase1) = 1.000032
MULES: Solving for alpha.phase1
MULES: Solving for alpha.phase1
Phase-1 volume fraction = 0.615832  Min(alpha.phase1) = -7.691543e-013  Max(alpha.phase1) = 1.000036
GAMG:  Solving for p_rgh, Initial residual = 0.0001241334, Final residual = 9.628805e-007, No Iterations 2
GAMG:  Solving for p_rgh, Initial residual = 7.207888e-006, Final residual = 9.149768e-007, No Iterations 1
GAMG:  Solving for p_rgh, Initial residual = 1.346774e-006, Final residual = 2.773733e-007, No Iterations 1
time step continuity errors : sum local = 1.182773e-009, global = -6.483238e-011, cumulative = -5.880143e-010
PIMPLE: iteration 2
MULES: Solving for alpha.phase1
MULES: Solving for alpha.phase1
Phase-1 volume fraction = 0.6158319  Min(alpha.phase1) = -8.027886e-013  Max(alpha.phase1) = 1.000027
MULES: Solving for alpha.phase1
MULES: Solving for alpha.phase1
Phase-1 volume fraction = 0.615832  Min(alpha.phase1) = -7.69847e-013  Max(alpha.phase1) = 1.000026
GAMG:  Solving for p_rgh, Initial residual = 4.07972e-006, Final residual = 4.785873e-007, No Iterations 1
GAMG:  Solving for p_rgh, Initial residual = 7.008052e-007, Final residual = 7.008052e-007, No Iterations 0
GAMG:  Solving for p_rgh, Initial residual = 7.008052e-007, Final residual = 1.568964e-007, No Iterations 1
time step continuity errors : sum local = 6.691268e-010, global = -1.493624e-011, cumulative = -6.029505e-010
DILUPBiCGStab:  Solving for omega, Initial residual = 0.0002126539, Final residual = 1.631733e-008, No Iterations 1
DILUPBiCGStab:  Solving for k, Initial residual = 0.0005168204, Final residual = 1.045712e-007, No Iterations 1
PIMPLE: converged in 2 iterations
ExecutionTime = 29.234 s  ClockTime = 30 s

forces forceMonitorOnBoatInDefault write:
    Sum of forces
        Total    : (64.94873 -572.7125 1588.143)
        Pressure : (54.63744 -572.9236 1587.88)
        Viscous  : (10.31129 0.2111 0.262053)
    Sum of moments
        Total    : (120.4169 1942.128 830.1604)
        Pressure : (120.3457 1944.643 833.6243)
        Viscous  : (0.0712417 -2.514555 -3.463912)


Courant Number mean: 0.00550768 max: 0.6196511
Interface Courant Number mean: 7.696724e-006 max: 0.494311
deltaT = 0.0006158556
Time = 0.0112011

PIMPLE: iteration 1
forces forces:
    Not including porosity effects

Restraint linearRestraint:  force (-0 -0 -3.308747)
Restraint angularRestraint:  moment (-0 -2.420878 -0)
6-DoF rigid body motion
    Centre of rotation: (-1.1 0 -0.1374957)
    Centre of mass: (-1.1 0 -0.1374957)
    Orientation: (0.9999996 0 0.0008551633 0 1 0 -0.0008551633 0 0.9999996)
    Linear velocity: (0 0 0.1123971)
    Angular velocity: (0 0.08095047 0)
MULES: Solving for alpha.phase1
MULES: Solving for alpha.phase1
Phase-1 volume fraction = 0.6158321  Min(alpha.phase1) = -7.373414e-013  Max(alpha.phase1) = 1.000025
MULES: Solving for alpha.phase1
MULES: Solving for alpha.phase1
Phase-1 volume fraction = 0.6158322  Min(alpha.phase1) = -7.057632e-013  Max(alpha.phase1) = 1.000025
GAMG:  Solving for p_rgh, Initial residual = 0.000120803, Final residual = 3.35895e-007, No Iterations 3
GAMG:  Solving for p_rgh, Initial residual = 6.703616e-006, Final residual = 9.018783e-007, No Iterations 1
GAMG:  Solving for p_rgh, Initial residual = 1.283293e-006, Final residual = 3.204249e-007, No Iterations 1
time step continuity errors : sum local = 1.403125e-009, global = -2.899943e-011, cumulative = -6.319499e-010
PIMPLE: iteration 2
MULES: Solving for alpha.phase1
MULES: Solving for alpha.phase1
Phase-1 volume fraction = 0.6158321  Min(alpha.phase1) = -7.377621e-013  Max(alpha.phase1) = 1.000026
MULES: Solving for alpha.phase1
MULES: Solving for alpha.phase1
Phase-1 volume fraction = 0.6158322  Min(alpha.phase1) = -7.064867e-013  Max(alpha.phase1) = 1.000026
GAMG:  Solving for p_rgh, Initial residual = 4.116708e-006, Final residual = 5.0725e-007, No Iterations 1
GAMG:  Solving for p_rgh, Initial residual = 7.471134e-007, Final residual = 7.471134e-007, No Iterations 0
GAMG:  Solving for p_rgh, Initial residual = 7.471134e-007, Final residual = 1.828122e-007, No Iterations 1
time step continuity errors : sum local = 8.006058e-010, global = 6.374591e-013, cumulative = -6.313125e-010
DILUPBiCGStab:  Solving for omega, Initial residual = 0.000211607, Final residual = 1.655661e-008, No Iterations 1
DILUPBiCGStab:  Solving for k, Initial residual = 0.0004918954, Final residual = 1.031558e-007, No Iterations 1
PIMPLE: converged in 2 iterations
ExecutionTime = 30.326 s  ClockTime = 31 s

forces forceMonitorOnBoatInDefault write:
    Sum of forces
        Total    : (65.07594 -569.5618 1582.988)
        Pressure : (55.07967 -569.7677 1582.719)
        Viscous  : (9.996267 0.2058692 0.2692063)
    Sum of moments
        Total    : (120.3063 1933.976 823.8283)
        Pressure : (120.235 1936.38 827.2053)
        Viscous  : (0.0713048 -2.403946 -3.37702)


Courant Number mean: 0.005594458 max: 0.6280445
Interface Courant Number mean: 8.171716e-006 max: 0.4965093
deltaT = 0.0006158556
Time = 0.011817

PIMPLE: iteration 1
forces forces:
    Not including porosity effects

Restraint linearRestraint:  force (-0 -0 -3.371912)
Restraint angularRestraint:  moment (-0 -2.428514 -0)
6-DoF rigid body motion
    Centre of rotation: (-1.1 0 -0.1374259)
    Centre of mass: (-1.1 0 -0.1374259)
    Orientation: (0.9999996 0 0.0009050945 0 1 0 -0.0009050945 0 0.9999996)
    Linear velocity: (0 0 0.1144757)
    Angular velocity: (0 0.08120189 0)
MULES: Solving for alpha.phase1
MULES: Solving for alpha.phase1
Phase-1 volume fraction = 0.6158323  Min(alpha.phase1) = -6.761768e-013  Max(alpha.phase1) = 1.000027
MULES: Solving for alpha.phase1
MULES: Solving for alpha.phase1
Phase-1 volume fraction = 0.6158324  Min(alpha.phase1) = -6.468035e-013  Max(alpha.phase1) = 1.000033
GAMG:  Solving for p_rgh, Initial residual = 0.0001213804, Final residual = 3.052646e-007, No Iterations 3
GAMG:  Solving for p_rgh, Initial residual = 6.624676e-006, Final residual = 7.883139e-007, No Iterations 1
GAMG:  Solving for p_rgh, Initial residual = 1.179022e-006, Final residual = 2.409107e-007, No Iterations 1
time step continuity errors : sum local = 1.054728e-009, global = -6.548031e-011, cumulative = -6.967928e-010
PIMPLE: iteration 2
MULES: Solving for alpha.phase1
MULES: Solving for alpha.phase1
Phase-1 volume fraction = 0.6158323  Min(alpha.phase1) = -6.765127e-013  Max(alpha.phase1) = 1.000025
MULES: Solving for alpha.phase1
MULES: Solving for alpha.phase1
Phase-1 volume fraction = 0.6158324  Min(alpha.phase1) = -6.473972e-013  Max(alpha.phase1) = 1.000025
GAMG:  Solving for p_rgh, Initial residual = 3.882422e-006, Final residual = 4.629325e-007, No Iterations 1
[...]
MULES: Solving for alpha.phase1
MULES: Solving for alpha.phase1
Phase-1 volume fraction = 0.6158901  Min(alpha.phase1) = -7.154687e-007  Max(alpha.phase1) = 1.000014
MULES: Solving for alpha.phase1
MULES: Solving for alpha.phase1
Phase-1 volume fraction = 0.6158906  Min(alpha.phase1) = -7.013933e-007  Max(alpha.phase1) = 1.000013
GAMG:  Solving for p_rgh, Initial residual = 0.0002324003, Final residual = 6.99615e-007, No Iterations 3
GAMG:  Solving for p_rgh, Initial residual = 1.001202e-005, Final residual = 4.802704e-007, No Iterations 2
GAMG:  Solving for p_rgh, Initial residual = 1.505925e-006, Final residual = 2.846722e-007, No Iterations 1
time step continuity errors : sum local = 3.095848e-009, global = -1.88589e-010, cumulative = -1.28505e-008
PIMPLE: iteration 2
MULES: Solving for alpha.phase1
MULES: Solving for alpha.phase1
Phase-1 volume fraction = 0.6158901  Min(alpha.phase1) = -7.147597e-007  Max(alpha.phase1) = 1.000016
MULES: Solving for alpha.phase1
MULES: Solving for alpha.phase1
Phase-1 volume fraction = 0.6158907  Min(alpha.phase1) = -7.000134e-007  Max(alpha.phase1) = 1.000017
GAMG:  Solving for p_rgh, Initial residual = 6.381452e-006, Final residual = 9.793205e-007, No Iterations 1
GAMG:  Solving for p_rgh, Initial residual = 1.297854e-006, Final residual = 3.406614e-007, No Iterations 1
GAMG:  Solving for p_rgh, Initial residual = 4.976329e-007, Final residual = 1.491863e-007, No Iterations 1
time step continuity errors : sum local = 1.622599e-009, global = -8.991323e-011, cumulative = -1.294041e-008
DILUPBiCGStab:  Solving for omega, Initial residual = 6.781364e-005, Final residual = 3.196711e-008, No Iterations 1
DILUPBiCGStab:  Solving for k, Initial residual = 7.552935e-005, Final residual = 2.314854e-007, No Iterations 1
PIMPLE: converged in 2 iterations
ExecutionTime = 143.605 s  ClockTime = 144 s

forces forceMonitorOnBoatInDefault write:
    Sum of forces
        Total    : (62.68879 -426.9252 1321.725)
        Pressure : (62.1251 -426.9073 1321.741)
        Viscous  : (0.5636906 -0.01784722 -0.01660286)
    Sum of moments
        Total    : (111.9333 1609.91 595.0873)
        Pressure : (111.9367 1609.918 595.2042)
        Viscous  : (-0.003455071 -0.007988706 -0.1169184)


Courant Number mean: 0.009939878 max: 1.092279
Interface Courant Number mean: 4.962594e-005 max: 0.4912521
deltaT = 0.001082572
Time = 0.0935046

PIMPLE: iteration 1
forces forces:
    Not including porosity effects

Restraint linearRestraint:  force (-0 -0 -8.524846)
Restraint angularRestraint:  moment (-0 -3.27555 -0)
6-DoF rigid body motion
    Centre of rotation: (-1.1 0 -0.1199622)
    Centre of mass: (-1.1 0 -0.1199622)
    Orientation: (0.999962 0 0.008713452 0 1 0 -0.008713452 0 0.999962)
    Linear velocity: (0 0 0.2854023)
    Angular velocity: (0 0.1095527 0)
MULES: Solving for alpha.phase1
MULES: Solving for alpha.phase1
Phase-1 volume fraction = 0.6158912  Min(alpha.phase1) = -6.858031e-007  Max(alpha.phase1) = 1.000022
MULES: Solving for alpha.phase1
MULES: Solving for alpha.phase1
Phase-1 volume fraction = 0.6158917  Min(alpha.phase1) = -6.718801e-007  Max(alpha.phase1) = 1.000026
GAMG:  Solving for p_rgh, Initial residual = 0.0002317551, Final residual = 6.236442e-007, No Iterations 3
GAMG:  Solving for p_rgh, Initial residual = 9.963952e-006, Final residual = 3.835094e-007, No Iterations 2
GAMG:  Solving for p_rgh, Initial residual = 1.462753e-006, Final residual = 1.843056e-007, No Iterations 1
time step continuity errors : sum local = 2.002567e-009, global = -1.684775e-010, cumulative = -1.310889e-008
PIMPLE: iteration 2
MULES: Solving for alpha.phase1
MULES: Solving for alpha.phase1
Phase-1 volume fraction = 0.6158912  Min(alpha.phase1) = -6.85434e-007  Max(alpha.phase1) = 1.000015
MULES: Solving for alpha.phase1
MULES: Solving for alpha.phase1
Phase-1 volume fraction = 0.6158917  Min(alpha.phase1) = -6.711692e-007  Max(alpha.phase1) = 1.000014
GAMG:  Solving for p_rgh, Initial residual = 5.906761e-006, Final residual = 8.942709e-007, No Iterations 1
GAMG:  Solving for p_rgh, Initial residual = 1.191005e-006, Final residual = 2.727842e-007, No Iterations 1
GAMG:  Solving for p_rgh, Initial residual = 4.040524e-007, Final residual = 9.761459e-008, No Iterations 1
time step continuity errors : sum local = 1.060781e-009, global = -3.791204e-011, cumulative = -1.31468e-008
DILUPBiCGStab:  Solving for omega, Initial residual = 6.677144e-005, Final residual = 3.151153e-008, No Iterations 1
DILUPBiCGStab:  Solving for k, Initial residual = 7.419787e-005, Final residual = 2.286191e-007, No Iterations 1
PIMPLE: converged in 2 iterations
ExecutionTime = 144.779 s  ClockTime = 145 s

forces forceMonitorOnBoatInDefault write:
    Sum of forces
        Total    : (62.58244 -425.5913 1318.874)
        Pressure : (62.01798 -425.5738 1318.891)
        Viscous  : (0.5644629 -0.01748153 -0.01626175)
    Sum of moments
        Total    : (111.8483 1606.518 593.2272)
        Pressure : (111.8516 1606.525 593.3442)
        Viscous  : (-0.003324274 -0.0070595 -0.1170389)


Courant Number mean: 0.009940199 max: 1.0982
Interface Courant Number mean: 5.042424e-005 max: 0.4857651
deltaT = 0.001082572
Time = 0.0945871

PIMPLE: iteration 1
forces forces:
    Not including porosity effects

Restraint linearRestraint:  force (-0 -0 -8.562069)
Restraint angularRestraint:  moment (-0 -3.286582 -0)
6-DoF rigid body motion
    Centre of rotation: (-1.1 0 -0.1196526)
    Centre of mass: (-1.1 0 -0.1196526)
    Orientation: (0.999961 0 0.008832245 0 1 0 -0.008832245 0 0.999961)
    Linear velocity: (0 0 0.2866162)
    Angular velocity: (0 0.1099198 0)
MULES: Solving for alpha.phase1
MULES: Solving for alpha.phase1
Phase-1 volume fraction = 0.6158922  Min(alpha.phase1) = -6.575694e-007  Max(alpha.phase1) = 1.000013
MULES: Solving for alpha.phase1
MULES: Solving for alpha.phase1
Phase-1 volume fraction = 0.6158927  Min(alpha.phase1) = -6.442424e-007  Max(alpha.phase1) = 1.000012
GAMG:  Solving for p_rgh, Initial residual = 0.0002335144, Final residual = 6.556578e-007, No Iterations 3
GAMG:  Solving for p_rgh, Initial residual = 1.001861e-005, Final residual = 4.630851e-007, No Iterations 2
GAMG:  Solving for p_rgh, Initial residual = 1.489304e-006, Final residual = 2.694712e-007, No Iterations 1
time step continuity errors : sum local = 2.925649e-009, global = -2.364445e-010, cumulative = -1.338324e-008
PIMPLE: iteration 2
MULES: Solving for alpha.phase1
MULES: Solving for alpha.phase1
Phase-1 volume fraction = 0.6158922  Min(alpha.phase1) = -6.570701e-007  Max(alpha.phase1) = 1.000015
MULES: Solving for alpha.phase1
MULES: Solving for alpha.phase1
Phase-1 volume fraction = 0.6158927  Min(alpha.phase1) = -6.432779e-007  Max(alpha.phase1) = 1.000015
GAMG:  Solving for p_rgh, Initial residual = 6.205768e-006, Final residual = 9.286342e-007, No Iterations 1
GAMG:  Solving for p_rgh, Initial residual = 1.24424e-006, Final residual = 3.147397e-007, No Iterations 1
GAMG:  Solving for p_rgh, Initial residual = 4.637211e-007, Final residual = 1.358821e-007, No Iterations 1
time step continuity errors : sum local = 1.475432e-009, global = -7.169143e-011, cumulative = -1.345494e-008
DILUPBiCGStab:  Solving for omega, Initial residual = 6.582306e-005, Final residual = 3.106304e-008, No Iterations 1
DILUPBiCGStab:  Solving for k, Initial residual = 7.291177e-005, Final residual = 2.257545e-007, No Iterations 1
PIMPLE: converged in 2 iterations
ExecutionTime = 145.995 s  ClockTime = 146 s

forces forceMonitorOnBoatInDefault write:
    Sum of forces
        Total    : (62.42203 -424.0678 1315.633)
        Pressure : (61.85662 -424.0507 1315.649)
        Viscous  : (0.5654081 -0.01710444 -0.0159249)
    Sum of moments
        Total    : (111.7355 1602.48 591.0272)
        Pressure : (111.7387 1602.487 591.1444)
        Viscous  : (-0.003198958 -0.006206945 -0.1172551)


Courant Number mean: 0.009940498 max: 1.118861
Interface Courant Number mean: 5.1094e-005 max: 0.4802534
deltaT = 0.001082572
Time = 0.0956697

PIMPLE: iteration 1
forces forces:
    Not including porosity effects

Restraint linearRestraint:  force (-0 -0 -8.598486)
Restraint angularRestraint:  moment (-0 -3.297593 -0)
6-DoF rigid body motion
    Centre of rotation: (-1.1 0 -0.1193417)
    Centre of mass: (-1.1 0 -0.1193417)
    Orientation: (0.9999599 0 0.008951434 0 1 0 -0.008951434 0 0.9999599)
    Linear velocity: (0 0 0.2878023)
    Angular velocity: (0 0.110286 0)
MULES: Solving for alpha.phase1
MULES: Solving for alpha.phase1
Phase-1 volume fraction = 0.6158933  Min(alpha.phase1) = -6.297588e-007  Max(alpha.phase1) = 1.00002
MULES: Solving for alpha.phase1
MULES: Solving for alpha.phase1
Phase-1 volume fraction = 0.6158938  Min(alpha.phase1) = -6.165186e-007  Max(alpha.phase1) = 1.000025
GAMG:  Solving for p_rgh, Initial residual = 0.0002345275, Final residual = 6.312111e-007, No Iterations 3
GAMG:  Solving for p_rgh, Initial residual = 1.021146e-005, Final residual = 3.935601e-007, No Iterations 2
GAMG:  Solving for p_rgh, Initial residual = 1.491035e-006, Final residual = 1.872336e-007, No Iterations 1
time step continuity errors : sum local = 2.031076e-009, global = -1.378242e-010, cumulative = -1.359276e-008
PIMPLE: iteration 2
MULES: Solving for alpha.phase1
MULES: Solving for alpha.phase1
Phase-1 volume fraction = 0.6158933  Min(alpha.phase1) = -6.29634e-007  Max(alpha.phase1) = 1.000014
MULES: Solving for alpha.phase1
MULES: Solving for alpha.phase1
Phase-1 volume fraction = 0.6158938  Min(alpha.phase1) = -6.162904e-007  Max(alpha.phase1) = 1.000013
GAMG:  Solving for p_rgh, Initial residual = 5.905992e-006, Final residual = 8.709461e-007, No Iterations 1
GAMG:  Solving for p_rgh, Initial residual = 1.179327e-006, Final residual = 2.6071e-007, No Iterations 1
GAMG:  Solving for p_rgh, Initial residual = 3.932559e-007, Final residual = 9.318472e-008, No Iterations 1
time step continuity errors : sum local = 1.01099e-009, global = -3.11736e-011, cumulative = -1.362393e-008
DILUPBiCGStab:  Solving for omega, Initial residual = 6.489116e-005, Final residual = 3.06126e-008, No Iterations 1
DILUPBiCGStab:  Solving for k, Initial residual = 7.166837e-005, Final residual = 2.229122e-007, No Iterations 1
PIMPLE: converged in 2 iterations
ExecutionTime = 147.055 s  ClockTime = 147 s

forces forceMonitorOnBoatInDefault write:
    Sum of forces
        Total    : (62.12993 -422.5267 1312.336)
        Pressure : (61.56346 -422.51 1312.352)
        Viscous  : (0.5664647 -0.01671933 -0.01556503)
    Sum of moments
        Total    : (111.6415 1598.142 588.7212)
        Pressure : (111.6445 1598.147 588.8388)
        Viscous  : (-0.003075434 -0.005360717 -0.1175492)


Courant Number mean: 0.009940766 max: 1.13914
Interface Courant Number mean: 5.161819e-005 max: 0.47471
deltaT = 0.001082572
Time = 0.0967523

PIMPLE: iteration 1
forces forces:
    Not including porosity effects

Restraint linearRestraint:  force (-0 -0 -8.634068)
Restraint angularRestraint:  moment (-0 -3.308581 -0)
6-DoF rigid body motion
    Centre of rotation: (-1.1 0 -0.1190295)
    Centre of mass: (-1.1 0 -0.1190295)
    Orientation: (0.9999589 0 0.00907102 0 1 0 -0.00907102 0 0.9999589)
    Linear velocity: (0 0 0.2889585)
    Angular velocity: (0 0.1106509 0)
MULES: Solving for alpha.phase1
MULES: Solving for alpha.phase1
Phase-1 volume fraction = 0.6158943  Min(alpha.phase1) = -6.034117e-007  Max(alpha.phase1) = 1.000013
MULES: Solving for alpha.phase1
MULES: Solving for alpha.phase1
Phase-1 volume fraction = 0.6158949  Min(alpha.phase1) = -5.907957e-007  Max(alpha.phase1) = 1.000013
GAMG:  Solving for p_rgh, Initial residual = 0.000233608, Final residual = 6.653106e-007, No Iterations 3
GAMG:  Solving for p_rgh, Initial residual = 1.005759e-005, Final residual = 4.521624e-007, No Iterations 2
GAMG:  Solving for p_rgh, Initial residual = 1.482659e-006, Final residual = 2.62111e-007, No Iterations 1
time step continuity errors : sum local = 2.840961e-009, global = -2.234393e-010, cumulative = -1.384737e-008
PIMPLE: iteration 2
MULES: Solving for alpha.phase1
MULES: Solving for alpha.phase1
Phase-1 volume fraction = 0.6158943  Min(alpha.phase1) = -6.028665e-007  Max(alpha.phase1) = 1.000014
MULES: Solving for alpha.phase1
MULES: Solving for alpha.phase1
Phase-1 volume fraction = 0.6158949  Min(alpha.phase1) = -5.897469e-007  Max(alpha.phase1) = 1.000014
GAMG:  Solving for p_rgh, Initial residual = 6.220796e-006, Final residual = 8.774116e-007, No Iterations 1
GAMG:  Solving for p_rgh, Initial residual = 1.18965e-006, Final residual = 2.939356e-007, No Iterations 1
GAMG:  Solving for p_rgh, Initial residual = 4.394178e-007, Final residual = 1.275012e-007, No Iterations 1
time step continuity errors : sum local = 1.382097e-009, global = -4.713884e-011, cumulative = -1.389451e-008
DILUPBiCGStab:  Solving for omega, Initial residual = 6.404934e-005, Final residual = 3.017057e-008, No Iterations 1
DILUPBiCGStab:  Solving for k, Initial residual = 7.048571e-005, Final residual = 2.200668e-007, No Iterations 1
PIMPLE: converged in 2 iterations
ExecutionTime = 148.189 s  ClockTime = 148 s

forces forceMonitorOnBoatInDefault write:
    Sum of forces
        Total    : (62.17408 -421.1737 1309.524)
        Pressure : (61.60644 -421.1574 1309.539)
        Viscous  : (0.5676435 -0.01630835 -0.01519718)
    Sum of moments
        Total    : (111.5326 1594.983 586.9325)
        Pressure : (111.5355 1594.987 587.0505)
        Viscous  : (-0.002955202 -0.004545727 -0.1179614)


Courant Number mean: 0.009941009 max: 1.158825
Interface Courant Number mean: 5.212085e-005 max: 0.4691418
deltaT = 0.001082572
Time = 0.0978349

PIMPLE: iteration 1
forces forces:
    Not including porosity effects

Restraint linearRestraint:  force (-0 -0 -8.668756)
Restraint angularRestraint:  moment (-0 -3.319528 -0)
6-DoF rigid body motion
    Centre of rotation: (-1.1 0 -0.118716)
    Centre of mass: (-1.1 0 -0.118716)
    Orientation: (0.9999578 0 0.009190999 0 1 0 -0.009190999 0 0.9999578)
    Linear velocity: (0 0 0.2900869)
    Angular velocity: (0 0.111015 0)
MULES: Solving for alpha.phase1
MULES: Solving for alpha.phase1
Phase-1 volume fraction = 0.6158954  Min(alpha.phase1) = -5.766607e-007  Max(alpha.phase1) = 1.000019
MULES: Solving for alpha.phase1
MULES: Solving for alpha.phase1
Phase-1 volume fraction = 0.6158959  Min(alpha.phase1) = -5.638778e-007  Max(alpha.phase1) = 1.000024
GAMG:  Solving for p_rgh, Initial residual = 0.0002318256, Final residual = 6.149363e-007, No Iterations 3
GAMG:  Solving for p_rgh, Initial residual = 1.009407e-005, Final residual = 3.934162e-007, No Iterations 2
GAMG:  Solving for p_rgh, Initial residual = 1.493348e-006, Final residual = 1.822448e-007, No Iterations 1
time step continuity errors : sum local = 1.973529e-009, global = -1.150283e-010, cumulative = -1.400954e-008
PIMPLE: iteration 2
MULES: Solving for alpha.phase1
MULES: Solving for alpha.phase1
Phase-1 volume fraction = 0.6158954  Min(alpha.phase1) = -5.768356e-007  Max(alpha.phase1) = 1.000014
MULES: Solving for alpha.phase1
MULES: Solving for alpha.phase1
Phase-1 volume fraction = 0.6158959  Min(alpha.phase1) = -5.642186e-007  Max(alpha.phase1) = 1.000014
GAMG:  Solving for p_rgh, Initial residual = 5.74158e-006, Final residual = 8.090913e-007, No Iterations 1
GAMG:  Solving for p_rgh, Initial residual = 1.094353e-006, Final residual = 2.383213e-007, No Iterations 1
GAMG:  Solving for p_rgh, Initial residual = 3.610558e-007, Final residual = 8.311534e-008, No Iterations 1
time step continuity errors : sum local = 9.001564e-010, global = -1.240368e-011, cumulative = -1.402194e-008
DILUPBiCGStab:  Solving for omega, Initial residual = 6.308251e-005, Final residual = 2.97193e-008, No Iterations 1
DILUPBiCGStab:  Solving for k, Initial residual = 6.931986e-005, Final residual = 2.171725e-007, No Iterations 1
PIMPLE: converged in 2 iterations
ExecutionTime = 149.448 s  ClockTime = 150 s


--> FOAM Warning : 
    From function virtual bool Foam::regIOobject::readIfModified()
    in file db/regIOobject/regIOobjectRead.C at line 281
        Re-reading object controlDict from file "C:/Users/Myo/simflow/boat/boat/system/controlDict"
Overriding OptimisationSwitches according to controlDict
    fileModificationSkew 0;

    maxMasterFileBufferSize 1e+009;

    maxThreadFileBufferSize 1e+009;

forces forceMonitorOnBoatInDefault write:
    Sum of forces
        Total    : (62.14309 -419.8235 1306.711)
        Pressure : (61.57417 -419.8076 1306.726)
        Viscous  : (0.5689237 -0.01587701 -0.01481802)
    Sum of moments
        Total    : (111.4297 1591.823 585.1246)
        Pressure : (111.4326 1591.827 585.2431)
        Viscous  : (-0.002836196 -0.003757112 -0.1184719)


Courant Number mean: 0.009941223 max: 1.17766
Interface Courant Number mean: 5.297715e-005 max: 0.4635677
deltaT = 0.001082572
Time = 0.0989174

PIMPLE: iteration 1
forces forces:
    Not including porosity effects

Restraint linearRestraint:  force (-0 -0 -8.702607)
Restraint angularRestraint:  moment (-0 -3.33045 -0)
6-DoF rigid body motion
    Centre of rotation: (-1.1 0 -0.1184014)
    Centre of mass: (-1.1 0 -0.1184014)
    Orientation: (0.9999566 0 0.009311373 0 1 0 -0.009311373 0 0.9999566)
    Linear velocity: (0 0 0.2911896)
    Angular velocity: (0 0.111379 0)
MULES: Solving for alpha.phase1
MULES: Solving for alpha.phase1
Phase-1 volume fraction = 0.6158964  Min(alpha.phase1) = -5.514071e-007  Max(alpha.phase1) = 1.000013
MULES: Solving for alpha.phase1
MULES: Solving for alpha.phase1
Phase-1 volume fraction = 0.615897  Min(alpha.phase1) = -5.388981e-007  Max(alpha.phase1) = 1.000013
GAMG:  Solving for p_rgh, Initial residual = 0.0002314907, Final residual = 6.284871e-007, No Iterations 3
GAMG:  Solving for p_rgh, Initial residual = 1.001082e-005, Final residual = 4.427312e-007, No Iterations 2
GAMG:  Solving for p_rgh, Initial residual = 1.473042e-006, Final residual = 2.553673e-007, No Iterations 1
time step continuity errors : sum local = 2.763094e-009, global = -2.004573e-010, cumulative = -1.42224e-008
PIMPLE: iteration 2
MULES: Solving for alpha.phase1
MULES: Solving for alpha.phase1
Phase-1 volume fraction = 0.6158964  Min(alpha.phase1) = -5.514639e-007  Max(alpha.phase1) = 1.000014
MULES: Solving for alpha.phase1
MULES: Solving for alpha.phase1
Phase-1 volume fraction = 0.615897  Min(alpha.phase1) = -5.390097e-007  Max(alpha.phase1) = 1.000015
GAMG:  Solving for p_rgh, Initial residual = 6.655301e-006, Final residual = 3.071981e-007, No Iterations 2
GAMG:  Solving for p_rgh, Initial residual = 1.024824e-006, Final residual = 1.589182e-007, No Iterations 1
GAMG:  Solving for p_rgh, Initial residual = 2.242407e-007, Final residual = 8.235624e-008, No Iterations 1
time step continuity errors : sum local = 8.912095e-010, global = 1.968059e-011, cumulative = -1.420272e-008
DILUPBiCGStab:  Solving for omega, Initial residual = 6.213325e-005, Final residual = 2.928051e-008, No Iterations 1
DILUPBiCGStab:  Solving for k, Initial residual = 6.814365e-005, Final residual = 2.142057e-007, No Iterations 1
PIMPLE: converged in 2 iterations
ExecutionTime = 150.661 s  ClockTime = 151 s

--> FOAM Warning : 
    From function void Foam::cuttingPlane::checkOverlap(Foam::word, const Foam::boundBox&, const Foam::boundBox&) const
    in file surface/cutting/cuttingPlaneSelection.C at line 55
    
slice_1 : Plane (0 1 0) (0 0 0) does not intersect the mesh bounds (-10 0 -2) (10 5 1)

writeObjects writeExtraFields write:
    automatically written object p
    writing object rho
forces forceMonitorOnBoatInDefault write:
    Sum of forces
        Total    : (62.16783 -418.2966 1303.384)
        Pressure : (61.59752 -418.2812 1303.398)
        Viscous  : (0.5703104 -0.01542907 -0.01444676)
    Sum of moments
        Total    : (111.2856 1588.016 583.0809)
        Pressure : (111.2883 1588.019 583.2)
        Viscous  : (-0.002723951 -0.003009266 -0.1190616)


End

Finalising parallel run
